* NGSPICE file created from clock_mux.ext - technology: gf180mcuC

* Black-box entry subcircuit for gf180mcu_fd_sc_mcu7t5v0__fillcap_32 abstract view
.subckt gf180mcu_fd_sc_mcu7t5v0__fillcap_32 VDD VSS
.ends

* Black-box entry subcircuit for gf180mcu_fd_sc_mcu7t5v0__filltie abstract view
.subckt gf180mcu_fd_sc_mcu7t5v0__filltie VDD VSS
.ends

* Black-box entry subcircuit for gf180mcu_fd_sc_mcu7t5v0__fill_2 abstract view
.subckt gf180mcu_fd_sc_mcu7t5v0__fill_2 VDD VSS
.ends

* Black-box entry subcircuit for gf180mcu_fd_sc_mcu7t5v0__fillcap_4 abstract view
.subckt gf180mcu_fd_sc_mcu7t5v0__fillcap_4 VDD VSS
.ends

* Black-box entry subcircuit for gf180mcu_fd_sc_mcu7t5v0__fillcap_64 abstract view
.subckt gf180mcu_fd_sc_mcu7t5v0__fillcap_64 VDD VSS
.ends

* Black-box entry subcircuit for gf180mcu_fd_sc_mcu7t5v0__fill_1 abstract view
.subckt gf180mcu_fd_sc_mcu7t5v0__fill_1 VDD VSS
.ends

* Black-box entry subcircuit for gf180mcu_fd_sc_mcu7t5v0__fillcap_8 abstract view
.subckt gf180mcu_fd_sc_mcu7t5v0__fillcap_8 VDD VSS
.ends

* Black-box entry subcircuit for gf180mcu_fd_sc_mcu7t5v0__fillcap_16 abstract view
.subckt gf180mcu_fd_sc_mcu7t5v0__fillcap_16 VDD VSS
.ends

* Black-box entry subcircuit for gf180mcu_fd_sc_mcu7t5v0__antenna abstract view
.subckt gf180mcu_fd_sc_mcu7t5v0__antenna I VDD VSS
.ends

* Black-box entry subcircuit for gf180mcu_fd_sc_mcu7t5v0__clkbuf_16 abstract view
.subckt gf180mcu_fd_sc_mcu7t5v0__clkbuf_16 I Z VDD VSS
.ends

* Black-box entry subcircuit for gf180mcu_fd_sc_mcu7t5v0__endcap abstract view
.subckt gf180mcu_fd_sc_mcu7t5v0__endcap VDD VSS
.ends

* Black-box entry subcircuit for gf180mcu_fd_sc_mcu7t5v0__dlyb_1 abstract view
.subckt gf180mcu_fd_sc_mcu7t5v0__dlyb_1 I Z VDD VSS
.ends

* Black-box entry subcircuit for gf180mcu_fd_sc_mcu7t5v0__buf_1 abstract view
.subckt gf180mcu_fd_sc_mcu7t5v0__buf_1 I Z VDD VSS
.ends

* Black-box entry subcircuit for gf180mcu_fd_sc_mcu7t5v0__dffq_1 abstract view
.subckt gf180mcu_fd_sc_mcu7t5v0__dffq_1 D CLK Q VDD VSS
.ends

* Black-box entry subcircuit for gf180mcu_fd_sc_mcu7t5v0__mux2_2 abstract view
.subckt gf180mcu_fd_sc_mcu7t5v0__mux2_2 I0 I1 S Z VDD VSS
.ends

* Black-box entry subcircuit for gf180mcu_fd_sc_mcu7t5v0__dlyd_1 abstract view
.subckt gf180mcu_fd_sc_mcu7t5v0__dlyd_1 I Z VDD VSS
.ends

.subckt clock_mux clock_out_a clock_out_b clock_out_c core_clock io_clock la_oenb
+ vdd vss
XFILLER_54_247 vdd vss gf180mcu_fd_sc_mcu7t5v0__fillcap_32
XTAP_177 vdd vss gf180mcu_fd_sc_mcu7t5v0__filltie
XTAP_188 vdd vss gf180mcu_fd_sc_mcu7t5v0__filltie
XTAP_199 vdd vss gf180mcu_fd_sc_mcu7t5v0__filltie
XFILLER_27_417 vdd vss gf180mcu_fd_sc_mcu7t5v0__fill_2
XFILLER_9_137 vdd vss gf180mcu_fd_sc_mcu7t5v0__fillcap_4
XFILLER_13_144 vdd vss gf180mcu_fd_sc_mcu7t5v0__fillcap_64
XFILLER_5_354 vdd vss gf180mcu_fd_sc_mcu7t5v0__fill_1
XFILLER_36_247 vdd vss gf180mcu_fd_sc_mcu7t5v0__fill_1
XFILLER_50_250 vdd vss gf180mcu_fd_sc_mcu7t5v0__fillcap_64
XFILLER_18_247 vdd vss gf180mcu_fd_sc_mcu7t5v0__fill_1
XFILLER_37_73 vdd vss gf180mcu_fd_sc_mcu7t5v0__fillcap_64
XFILLER_41_283 vdd vss gf180mcu_fd_sc_mcu7t5v0__fill_1
XFILLER_49_350 vdd vss gf180mcu_fd_sc_mcu7t5v0__fillcap_4
XFILLER_32_250 vdd vss gf180mcu_fd_sc_mcu7t5v0__fillcap_64
XFILLER_23_283 vdd vss gf180mcu_fd_sc_mcu7t5v0__fill_1
XFILLER_7_405 vdd vss gf180mcu_fd_sc_mcu7t5v0__fillcap_8
XFILLER_23_97 vdd vss gf180mcu_fd_sc_mcu7t5v0__fillcap_4
XFILLER_2_176 vdd vss gf180mcu_fd_sc_mcu7t5v0__fill_1
XFILLER_9_66 vdd vss gf180mcu_fd_sc_mcu7t5v0__fillcap_4
XFILLER_14_250 vdd vss gf180mcu_fd_sc_mcu7t5v0__fillcap_64
XFILLER_43_2 vdd vss gf180mcu_fd_sc_mcu7t5v0__fillcap_64
XFILLER_52_389 vdd vss gf180mcu_fd_sc_mcu7t5v0__fill_1
XFILLER_4_408 vdd vss gf180mcu_fd_sc_mcu7t5v0__fillcap_8
XFILLER_43_389 vdd vss gf180mcu_fd_sc_mcu7t5v0__fillcap_16
XFILLER_11_286 vdd vss gf180mcu_fd_sc_mcu7t5v0__fillcap_64
XFILLER_7_279 vdd vss gf180mcu_fd_sc_mcu7t5v0__fillcap_4
XFILLER_34_389 vdd vss gf180mcu_fd_sc_mcu7t5v0__fill_1
XFILLER_46_172 vdd vss gf180mcu_fd_sc_mcu7t5v0__fillcap_4
XFILLER_25_389 vdd vss gf180mcu_fd_sc_mcu7t5v0__fillcap_16
XFILLER_16_389 vdd vss gf180mcu_fd_sc_mcu7t5v0__fill_1
XFILLER_28_172 vdd vss gf180mcu_fd_sc_mcu7t5v0__fillcap_4
XFILLER_45_73 vdd vss gf180mcu_fd_sc_mcu7t5v0__fillcap_64
XFILLER_6_34 vdd vss gf180mcu_fd_sc_mcu7t5v0__fill_1
XTAP_304 vdd vss gf180mcu_fd_sc_mcu7t5v0__filltie
XTAP_315 vdd vss gf180mcu_fd_sc_mcu7t5v0__filltie
XTAP_326 vdd vss gf180mcu_fd_sc_mcu7t5v0__filltie
XTAP_337 vdd vss gf180mcu_fd_sc_mcu7t5v0__filltie
XTAP_348 vdd vss gf180mcu_fd_sc_mcu7t5v0__filltie
XTAP_359 vdd vss gf180mcu_fd_sc_mcu7t5v0__filltie
XFILLER_30_392 vdd vss gf180mcu_fd_sc_mcu7t5v0__fillcap_16
XFILLER_1_208 vdd vss gf180mcu_fd_sc_mcu7t5v0__fillcap_4
XFILLER_40_101 vdd vss gf180mcu_fd_sc_mcu7t5v0__fillcap_4
XFILLER_12_392 vdd vss gf180mcu_fd_sc_mcu7t5v0__fillcap_16
XFILLER_8_385 vdd vss gf180mcu_fd_sc_mcu7t5v0__fillcap_4
XTAP_178 vdd vss gf180mcu_fd_sc_mcu7t5v0__filltie
XTAP_167 vdd vss gf180mcu_fd_sc_mcu7t5v0__filltie
XTAP_156 vdd vss gf180mcu_fd_sc_mcu7t5v0__filltie
XTAP_145 vdd vss gf180mcu_fd_sc_mcu7t5v0__filltie
XTAP_134 vdd vss gf180mcu_fd_sc_mcu7t5v0__filltie
XTAP_112 vdd vss gf180mcu_fd_sc_mcu7t5v0__filltie
XTAP_123 vdd vss gf180mcu_fd_sc_mcu7t5v0__filltie
XTAP_189 vdd vss gf180mcu_fd_sc_mcu7t5v0__filltie
XFILLER_39_212 vdd vss gf180mcu_fd_sc_mcu7t5v0__fill_1
XFILLER_10_318 vdd vss gf180mcu_fd_sc_mcu7t5v0__fill_1
XFILLER_22_101 vdd vss gf180mcu_fd_sc_mcu7t5v0__fillcap_4
XFILLER_45_215 vdd vss gf180mcu_fd_sc_mcu7t5v0__fillcap_64
XFILLER_27_215 vdd vss gf180mcu_fd_sc_mcu7t5v0__fillcap_64
XFILLER_6_108 vdd vss gf180mcu_fd_sc_mcu7t5v0__fillcap_64
XFILLER_2_314 vdd vss gf180mcu_fd_sc_mcu7t5v0__fillcap_4
XFILLER_53_73 vdd vss gf180mcu_fd_sc_mcu7t5v0__fillcap_64
XFILLER_5_141 vdd vss gf180mcu_fd_sc_mcu7t5v0__fill_1
XFILLER_11_413 vdd vss gf180mcu_fd_sc_mcu7t5v0__fillcap_4
XFILLER_7_417 vdd vss gf180mcu_fd_sc_mcu7t5v0__fill_2
XFILLER_3_2 vdd vss gf180mcu_fd_sc_mcu7t5v0__fillcap_64
XFILLER_0_69 vdd vss gf180mcu_fd_sc_mcu7t5v0__fill_1
XFILLER_46_321 vdd vss gf180mcu_fd_sc_mcu7t5v0__fillcap_64
XFILLER_36_2 vdd vss gf180mcu_fd_sc_mcu7t5v0__fillcap_32
XFILLER_37_354 vdd vss gf180mcu_fd_sc_mcu7t5v0__fill_1
XFILLER_20_243 vdd vss gf180mcu_fd_sc_mcu7t5v0__fillcap_4
XFILLER_28_321 vdd vss gf180mcu_fd_sc_mcu7t5v0__fillcap_64
XFILLER_43_357 vdd vss gf180mcu_fd_sc_mcu7t5v0__fillcap_32
XFILLER_19_354 vdd vss gf180mcu_fd_sc_mcu7t5v0__fill_1
XFILLER_25_357 vdd vss gf180mcu_fd_sc_mcu7t5v0__fillcap_32
XFILLER_52_176 vdd vss gf180mcu_fd_sc_mcu7t5v0__fill_1
XFILLER_20_88 vdd vss gf180mcu_fd_sc_mcu7t5v0__fill_2
XFILLER_48_416 vdd vss gf180mcu_fd_sc_mcu7t5v0__fillcap_4
XFILLER_3_283 vdd vss gf180mcu_fd_sc_mcu7t5v0__fill_1
XTAP_305 vdd vss gf180mcu_fd_sc_mcu7t5v0__filltie
XTAP_316 vdd vss gf180mcu_fd_sc_mcu7t5v0__filltie
XTAP_327 vdd vss gf180mcu_fd_sc_mcu7t5v0__filltie
XFILLER_39_405 vdd vss gf180mcu_fd_sc_mcu7t5v0__fillcap_8
XTAP_338 vdd vss gf180mcu_fd_sc_mcu7t5v0__filltie
XTAP_349 vdd vss gf180mcu_fd_sc_mcu7t5v0__filltie
XFILLER_54_419 vdd vss gf180mcu_fd_sc_mcu7t5v0__fill_1
XFILLER_34_176 vdd vss gf180mcu_fd_sc_mcu7t5v0__fill_1
XFILLER_15_66 vdd vss gf180mcu_fd_sc_mcu7t5v0__fillcap_4
XFILLER_45_419 vdd vss gf180mcu_fd_sc_mcu7t5v0__fill_1
XANTENNA_clkbuf_1_0__f_net2_I clknet_0_net2 vdd vss gf180mcu_fd_sc_mcu7t5v0__antenna
XFILLER_40_179 vdd vss gf180mcu_fd_sc_mcu7t5v0__fillcap_64
XFILLER_36_408 vdd vss gf180mcu_fd_sc_mcu7t5v0__fillcap_8
XFILLER_16_176 vdd vss gf180mcu_fd_sc_mcu7t5v0__fill_1
XTAP_179 vdd vss gf180mcu_fd_sc_mcu7t5v0__filltie
XTAP_168 vdd vss gf180mcu_fd_sc_mcu7t5v0__filltie
XTAP_157 vdd vss gf180mcu_fd_sc_mcu7t5v0__filltie
XTAP_146 vdd vss gf180mcu_fd_sc_mcu7t5v0__filltie
XTAP_135 vdd vss gf180mcu_fd_sc_mcu7t5v0__filltie
XTAP_113 vdd vss gf180mcu_fd_sc_mcu7t5v0__filltie
XTAP_124 vdd vss gf180mcu_fd_sc_mcu7t5v0__filltie
XFILLER_27_419 vdd vss gf180mcu_fd_sc_mcu7t5v0__fill_1
XFILLER_39_279 vdd vss gf180mcu_fd_sc_mcu7t5v0__fillcap_4
XFILLER_22_179 vdd vss gf180mcu_fd_sc_mcu7t5v0__fillcap_64
XFILLER_18_408 vdd vss gf180mcu_fd_sc_mcu7t5v0__fillcap_8
XFILLER_26_10 vdd vss gf180mcu_fd_sc_mcu7t5v0__fillcap_4
XFILLER_5_389 vdd vss gf180mcu_fd_sc_mcu7t5v0__fillcap_16
XFILLER_51_208 vdd vss gf180mcu_fd_sc_mcu7t5v0__fillcap_4
XFILLER_8_172 vdd vss gf180mcu_fd_sc_mcu7t5v0__fillcap_4
XFILLER_10_105 vdd vss gf180mcu_fd_sc_mcu7t5v0__fill_1
XFILLER_12_34 vdd vss gf180mcu_fd_sc_mcu7t5v0__fill_1
XFILLER_33_208 vdd vss gf180mcu_fd_sc_mcu7t5v0__fillcap_4
XANTENNA_output2_I clknet_1_0__leaf_net2 vdd vss gf180mcu_fd_sc_mcu7t5v0__antenna
XFILLER_15_208 vdd vss gf180mcu_fd_sc_mcu7t5v0__fillcap_4
XFILLER_23_66 vdd vss gf180mcu_fd_sc_mcu7t5v0__fillcap_4
XFILLER_2_101 vdd vss gf180mcu_fd_sc_mcu7t5v0__fillcap_4
XFILLER_0_37 vdd vss gf180mcu_fd_sc_mcu7t5v0__fillcap_32
XFILLER_29_2 vdd vss gf180mcu_fd_sc_mcu7t5v0__fillcap_64
XFILLER_52_314 vdd vss gf180mcu_fd_sc_mcu7t5v0__fillcap_4
XFILLER_18_88 vdd vss gf180mcu_fd_sc_mcu7t5v0__fillcap_16
XFILLER_7_215 vdd vss gf180mcu_fd_sc_mcu7t5v0__fillcap_64
XFILLER_34_314 vdd vss gf180mcu_fd_sc_mcu7t5v0__fillcap_4
XFILLER_38_108 vdd vss gf180mcu_fd_sc_mcu7t5v0__fillcap_64
XFILLER_37_141 vdd vss gf180mcu_fd_sc_mcu7t5v0__fill_1
XFILLER_20_34 vdd vss gf180mcu_fd_sc_mcu7t5v0__fill_1
XFILLER_16_314 vdd vss gf180mcu_fd_sc_mcu7t5v0__fillcap_4
XFILLER_43_144 vdd vss gf180mcu_fd_sc_mcu7t5v0__fillcap_64
XTAP_306 vdd vss gf180mcu_fd_sc_mcu7t5v0__filltie
XTAP_317 vdd vss gf180mcu_fd_sc_mcu7t5v0__filltie
XTAP_328 vdd vss gf180mcu_fd_sc_mcu7t5v0__filltie
XFILLER_39_417 vdd vss gf180mcu_fd_sc_mcu7t5v0__fill_2
XTAP_339 vdd vss gf180mcu_fd_sc_mcu7t5v0__filltie
XFILLER_19_141 vdd vss gf180mcu_fd_sc_mcu7t5v0__fill_1
XFILLER_25_144 vdd vss gf180mcu_fd_sc_mcu7t5v0__fillcap_64
XFILLER_21_350 vdd vss gf180mcu_fd_sc_mcu7t5v0__fillcap_4
XFILLER_31_66 vdd vss gf180mcu_fd_sc_mcu7t5v0__fillcap_4
XFILLER_48_247 vdd vss gf180mcu_fd_sc_mcu7t5v0__fill_1
XFILLER_8_321 vdd vss gf180mcu_fd_sc_mcu7t5v0__fillcap_64
XTAP_114 vdd vss gf180mcu_fd_sc_mcu7t5v0__filltie
XFILLER_11_2 vdd vss gf180mcu_fd_sc_mcu7t5v0__fillcap_16
XTAP_169 vdd vss gf180mcu_fd_sc_mcu7t5v0__filltie
XTAP_158 vdd vss gf180mcu_fd_sc_mcu7t5v0__filltie
XTAP_147 vdd vss gf180mcu_fd_sc_mcu7t5v0__filltie
XTAP_136 vdd vss gf180mcu_fd_sc_mcu7t5v0__filltie
XTAP_125 vdd vss gf180mcu_fd_sc_mcu7t5v0__filltie
XFILLER_26_22 vdd vss gf180mcu_fd_sc_mcu7t5v0__fill_2
XFILLER_53_283 vdd vss gf180mcu_fd_sc_mcu7t5v0__fill_1
XFILLER_5_357 vdd vss gf180mcu_fd_sc_mcu7t5v0__fillcap_32
XFILLER_44_250 vdd vss gf180mcu_fd_sc_mcu7t5v0__fillcap_64
XFILLER_35_283 vdd vss gf180mcu_fd_sc_mcu7t5v0__fill_1
XFILLER_26_250 vdd vss gf180mcu_fd_sc_mcu7t5v0__fillcap_64
XFILLER_41_286 vdd vss gf180mcu_fd_sc_mcu7t5v0__fillcap_64
XFILLER_17_283 vdd vss gf180mcu_fd_sc_mcu7t5v0__fill_1
XFILLER_7_419 vdd vss gf180mcu_fd_sc_mcu7t5v0__fill_1
XFILLER_23_89 vdd vss gf180mcu_fd_sc_mcu7t5v0__fillcap_8
XFILLER_23_286 vdd vss gf180mcu_fd_sc_mcu7t5v0__fillcap_64
XFILLER_2_179 vdd vss gf180mcu_fd_sc_mcu7t5v0__fillcap_64
XFILLER_46_389 vdd vss gf180mcu_fd_sc_mcu7t5v0__fill_1
Xclkbuf_0_core_clock core_clock clknet_0_core_clock vdd vss gf180mcu_fd_sc_mcu7t5v0__clkbuf_16
XFILLER_37_389 vdd vss gf180mcu_fd_sc_mcu7t5v0__fillcap_16
XFILLER_18_34 vdd vss gf180mcu_fd_sc_mcu7t5v0__fill_1
XFILLER_11_212 vdd vss gf180mcu_fd_sc_mcu7t5v0__fill_1
XFILLER_28_389 vdd vss gf180mcu_fd_sc_mcu7t5v0__fill_1
XFILLER_19_389 vdd vss gf180mcu_fd_sc_mcu7t5v0__fillcap_16
XFILLER_42_392 vdd vss gf180mcu_fd_sc_mcu7t5v0__fillcap_16
XFILLER_41_2 vdd vss gf180mcu_fd_sc_mcu7t5v0__fillcap_64
XFILLER_1_70 vdd vss gf180mcu_fd_sc_mcu7t5v0__fill_1
XFILLER_40_318 vdd vss gf180mcu_fd_sc_mcu7t5v0__fill_1
XFILLER_52_101 vdd vss gf180mcu_fd_sc_mcu7t5v0__fillcap_4
XFILLER_29_66 vdd vss gf180mcu_fd_sc_mcu7t5v0__fillcap_4
XFILLER_24_392 vdd vss gf180mcu_fd_sc_mcu7t5v0__fillcap_16
XFILLER_6_37 vdd vss gf180mcu_fd_sc_mcu7t5v0__fillcap_64
XTAP_307 vdd vss gf180mcu_fd_sc_mcu7t5v0__filltie
XTAP_318 vdd vss gf180mcu_fd_sc_mcu7t5v0__filltie
XTAP_329 vdd vss gf180mcu_fd_sc_mcu7t5v0__filltie
XFILLER_22_318 vdd vss gf180mcu_fd_sc_mcu7t5v0__fill_1
XFILLER_34_101 vdd vss gf180mcu_fd_sc_mcu7t5v0__fillcap_4
XFILLER_0_244 vdd vss gf180mcu_fd_sc_mcu7t5v0__fill_1
XFILLER_16_101 vdd vss gf180mcu_fd_sc_mcu7t5v0__fillcap_4
XFILLER_31_137 vdd vss gf180mcu_fd_sc_mcu7t5v0__fillcap_4
XTAP_148 vdd vss gf180mcu_fd_sc_mcu7t5v0__filltie
XTAP_137 vdd vss gf180mcu_fd_sc_mcu7t5v0__filltie
XTAP_115 vdd vss gf180mcu_fd_sc_mcu7t5v0__filltie
XTAP_126 vdd vss gf180mcu_fd_sc_mcu7t5v0__filltie
XTAP_159 vdd vss gf180mcu_fd_sc_mcu7t5v0__filltie
XFILLER_39_215 vdd vss gf180mcu_fd_sc_mcu7t5v0__fillcap_64
XFILLER_26_34 vdd vss gf180mcu_fd_sc_mcu7t5v0__fill_1
XFILLER_41_413 vdd vss gf180mcu_fd_sc_mcu7t5v0__fillcap_4
XFILLER_13_137 vdd vss gf180mcu_fd_sc_mcu7t5v0__fillcap_4
Xclkbuf_0_net2 net2 clknet_0_net2 vdd vss gf180mcu_fd_sc_mcu7t5v0__clkbuf_16
XFILLER_23_413 vdd vss gf180mcu_fd_sc_mcu7t5v0__fillcap_4
XFILLER_50_243 vdd vss gf180mcu_fd_sc_mcu7t5v0__fillcap_4
XFILLER_37_66 vdd vss gf180mcu_fd_sc_mcu7t5v0__fillcap_4
XFILLER_5_144 vdd vss gf180mcu_fd_sc_mcu7t5v0__fillcap_64
XFILLER_1_350 vdd vss gf180mcu_fd_sc_mcu7t5v0__fillcap_4
XFILLER_49_354 vdd vss gf180mcu_fd_sc_mcu7t5v0__fill_1
XFILLER_20_416 vdd vss gf180mcu_fd_sc_mcu7t5v0__fillcap_4
XFILLER_32_243 vdd vss gf180mcu_fd_sc_mcu7t5v0__fillcap_4
XFILLER_11_405 vdd vss gf180mcu_fd_sc_mcu7t5v0__fillcap_8
XFILLER_14_243 vdd vss gf180mcu_fd_sc_mcu7t5v0__fillcap_4
XFILLER_37_357 vdd vss gf180mcu_fd_sc_mcu7t5v0__fillcap_32
XFILLER_34_34 vdd vss gf180mcu_fd_sc_mcu7t5v0__fill_1
XFILLER_11_279 vdd vss gf180mcu_fd_sc_mcu7t5v0__fillcap_4
XFILLER_1_2 vdd vss gf180mcu_fd_sc_mcu7t5v0__fillcap_64
XFILLER_19_357 vdd vss gf180mcu_fd_sc_mcu7t5v0__fillcap_32
XFILLER_46_176 vdd vss gf180mcu_fd_sc_mcu7t5v0__fill_1
XFILLER_6_250 vdd vss gf180mcu_fd_sc_mcu7t5v0__fillcap_64
XFILLER_34_2 vdd vss gf180mcu_fd_sc_mcu7t5v0__fillcap_32
XFILLER_52_179 vdd vss gf180mcu_fd_sc_mcu7t5v0__fillcap_64
XFILLER_48_408 vdd vss gf180mcu_fd_sc_mcu7t5v0__fillcap_8
XFILLER_28_176 vdd vss gf180mcu_fd_sc_mcu7t5v0__fill_1
XFILLER_45_66 vdd vss gf180mcu_fd_sc_mcu7t5v0__fillcap_4
XFILLER_3_286 vdd vss gf180mcu_fd_sc_mcu7t5v0__fillcap_64
XTAP_308 vdd vss gf180mcu_fd_sc_mcu7t5v0__filltie
XTAP_319 vdd vss gf180mcu_fd_sc_mcu7t5v0__filltie
XFILLER_39_419 vdd vss gf180mcu_fd_sc_mcu7t5v0__fill_1
XFILLER_34_179 vdd vss gf180mcu_fd_sc_mcu7t5v0__fillcap_64
XFILLER_30_385 vdd vss gf180mcu_fd_sc_mcu7t5v0__fillcap_4
XFILLER_40_105 vdd vss gf180mcu_fd_sc_mcu7t5v0__fill_1
XFILLER_0_212 vdd vss gf180mcu_fd_sc_mcu7t5v0__fillcap_32
XFILLER_16_179 vdd vss gf180mcu_fd_sc_mcu7t5v0__fillcap_64
XFILLER_12_385 vdd vss gf180mcu_fd_sc_mcu7t5v0__fillcap_4
XFILLER_8_389 vdd vss gf180mcu_fd_sc_mcu7t5v0__fill_1
XTAP_149 vdd vss gf180mcu_fd_sc_mcu7t5v0__filltie
XTAP_138 vdd vss gf180mcu_fd_sc_mcu7t5v0__filltie
XTAP_116 vdd vss gf180mcu_fd_sc_mcu7t5v0__filltie
XTAP_127 vdd vss gf180mcu_fd_sc_mcu7t5v0__filltie
XFILLER_22_105 vdd vss gf180mcu_fd_sc_mcu7t5v0__fill_1
XFILLER_45_208 vdd vss gf180mcu_fd_sc_mcu7t5v0__fillcap_4
XFILLER_42_34 vdd vss gf180mcu_fd_sc_mcu7t5v0__fill_1
XFILLER_4_392 vdd vss gf180mcu_fd_sc_mcu7t5v0__fillcap_16
XANTENNA_input1_I la_oenb vdd vss gf180mcu_fd_sc_mcu7t5v0__antenna
XFILLER_27_208 vdd vss gf180mcu_fd_sc_mcu7t5v0__fillcap_4
XFILLER_12_37 vdd vss gf180mcu_fd_sc_mcu7t5v0__fillcap_64
XFILLER_10_108 vdd vss gf180mcu_fd_sc_mcu7t5v0__fillcap_64
XFILLER_2_318 vdd vss gf180mcu_fd_sc_mcu7t5v0__fill_1
XFILLER_53_66 vdd vss gf180mcu_fd_sc_mcu7t5v0__fillcap_4
XFILLER_11_417 vdd vss gf180mcu_fd_sc_mcu7t5v0__fill_2
XFILLER_46_314 vdd vss gf180mcu_fd_sc_mcu7t5v0__fillcap_4
XFILLER_49_141 vdd vss gf180mcu_fd_sc_mcu7t5v0__fill_1
XFILLER_20_247 vdd vss gf180mcu_fd_sc_mcu7t5v0__fill_1
XFILLER_28_314 vdd vss gf180mcu_fd_sc_mcu7t5v0__fillcap_4
XFILLER_51_350 vdd vss gf180mcu_fd_sc_mcu7t5v0__fillcap_4
XFILLER_3_413 vdd vss gf180mcu_fd_sc_mcu7t5v0__fillcap_4
XFILLER_50_34 vdd vss gf180mcu_fd_sc_mcu7t5v0__fill_1
XFILLER_27_2 vdd vss gf180mcu_fd_sc_mcu7t5v0__fill_1
XFILLER_37_144 vdd vss gf180mcu_fd_sc_mcu7t5v0__fillcap_64
XFILLER_33_350 vdd vss gf180mcu_fd_sc_mcu7t5v0__fillcap_4
XFILLER_20_37 vdd vss gf180mcu_fd_sc_mcu7t5v0__fill_1
XTAP_309 vdd vss gf180mcu_fd_sc_mcu7t5v0__filltie
XFILLER_19_144 vdd vss gf180mcu_fd_sc_mcu7t5v0__fillcap_64
XFILLER_15_350 vdd vss gf180mcu_fd_sc_mcu7t5v0__fillcap_4
XFILLER_0_279 vdd vss gf180mcu_fd_sc_mcu7t5v0__fill_1
XTAP_139 vdd vss gf180mcu_fd_sc_mcu7t5v0__filltie
XTAP_117 vdd vss gf180mcu_fd_sc_mcu7t5v0__filltie
XTAP_128 vdd vss gf180mcu_fd_sc_mcu7t5v0__filltie
XFILLER_54_209 vdd vss gf180mcu_fd_sc_mcu7t5v0__fill_1
XPHY_0 vdd vss gf180mcu_fd_sc_mcu7t5v0__endcap
XFILLER_47_283 vdd vss gf180mcu_fd_sc_mcu7t5v0__fill_1
XFILLER_30_172 vdd vss gf180mcu_fd_sc_mcu7t5v0__fillcap_4
XFILLER_26_14 vdd vss gf180mcu_fd_sc_mcu7t5v0__fill_2
XFILLER_38_250 vdd vss gf180mcu_fd_sc_mcu7t5v0__fillcap_64
XFILLER_53_286 vdd vss gf180mcu_fd_sc_mcu7t5v0__fillcap_64
XFILLER_29_283 vdd vss gf180mcu_fd_sc_mcu7t5v0__fill_1
XFILLER_12_172 vdd vss gf180mcu_fd_sc_mcu7t5v0__fillcap_4
XFILLER_8_176 vdd vss gf180mcu_fd_sc_mcu7t5v0__fill_1
XFILLER_35_286 vdd vss gf180mcu_fd_sc_mcu7t5v0__fillcap_64
XFILLER_41_212 vdd vss gf180mcu_fd_sc_mcu7t5v0__fill_1
XFILLER_49_389 vdd vss gf180mcu_fd_sc_mcu7t5v0__fillcap_16
XFILLER_17_286 vdd vss gf180mcu_fd_sc_mcu7t5v0__fillcap_64
XFILLER_23_212 vdd vss gf180mcu_fd_sc_mcu7t5v0__fill_1
XFILLER_2_105 vdd vss gf180mcu_fd_sc_mcu7t5v0__fill_1
XFILLER_48_34 vdd vss gf180mcu_fd_sc_mcu7t5v0__fill_1
XFILLER_13_70 vdd vss gf180mcu_fd_sc_mcu7t5v0__fill_1
XFILLER_52_318 vdd vss gf180mcu_fd_sc_mcu7t5v0__fill_1
XFILLER_18_37 vdd vss gf180mcu_fd_sc_mcu7t5v0__fill_1
XFILLER_36_392 vdd vss gf180mcu_fd_sc_mcu7t5v0__fillcap_16
XFILLER_11_215 vdd vss gf180mcu_fd_sc_mcu7t5v0__fillcap_64
XFILLER_7_208 vdd vss gf180mcu_fd_sc_mcu7t5v0__fillcap_4
XFILLER_46_101 vdd vss gf180mcu_fd_sc_mcu7t5v0__fillcap_4
XFILLER_34_318 vdd vss gf180mcu_fd_sc_mcu7t5v0__fill_1
XFILLER_1_73 vdd vss gf180mcu_fd_sc_mcu7t5v0__fillcap_64
XFILLER_18_392 vdd vss gf180mcu_fd_sc_mcu7t5v0__fillcap_16
XFILLER_28_101 vdd vss gf180mcu_fd_sc_mcu7t5v0__fillcap_4
XFILLER_16_318 vdd vss gf180mcu_fd_sc_mcu7t5v0__fill_1
XFILLER_43_137 vdd vss gf180mcu_fd_sc_mcu7t5v0__fillcap_4
XFILLER_30_321 vdd vss gf180mcu_fd_sc_mcu7t5v0__fillcap_64
XFILLER_53_413 vdd vss gf180mcu_fd_sc_mcu7t5v0__fillcap_4
XFILLER_21_354 vdd vss gf180mcu_fd_sc_mcu7t5v0__fill_1
XFILLER_0_247 vdd vss gf180mcu_fd_sc_mcu7t5v0__fillcap_32
XFILLER_12_321 vdd vss gf180mcu_fd_sc_mcu7t5v0__fillcap_64
XFILLER_8_314 vdd vss gf180mcu_fd_sc_mcu7t5v0__fillcap_4
XFILLER_21_70 vdd vss gf180mcu_fd_sc_mcu7t5v0__fill_1
XTAP_118 vdd vss gf180mcu_fd_sc_mcu7t5v0__filltie
XTAP_129 vdd vss gf180mcu_fd_sc_mcu7t5v0__filltie
XPHY_1 vdd vss gf180mcu_fd_sc_mcu7t5v0__endcap
XFILLER_35_413 vdd vss gf180mcu_fd_sc_mcu7t5v0__fillcap_4
XFILLER_50_416 vdd vss gf180mcu_fd_sc_mcu7t5v0__fillcap_4
XFILLER_26_26 vdd vss gf180mcu_fd_sc_mcu7t5v0__fillcap_8
XFILLER_26_37 vdd vss gf180mcu_fd_sc_mcu7t5v0__fillcap_64
XFILLER_41_405 vdd vss gf180mcu_fd_sc_mcu7t5v0__fillcap_8
XFILLER_17_413 vdd vss gf180mcu_fd_sc_mcu7t5v0__fillcap_4
XFILLER_32_416 vdd vss gf180mcu_fd_sc_mcu7t5v0__fillcap_4
XFILLER_44_243 vdd vss gf180mcu_fd_sc_mcu7t5v0__fillcap_4
XFILLER_23_405 vdd vss gf180mcu_fd_sc_mcu7t5v0__fillcap_8
XFILLER_14_416 vdd vss gf180mcu_fd_sc_mcu7t5v0__fillcap_4
XFILLER_26_243 vdd vss gf180mcu_fd_sc_mcu7t5v0__fillcap_4
XFILLER_41_279 vdd vss gf180mcu_fd_sc_mcu7t5v0__fillcap_4
XFILLER_49_357 vdd vss gf180mcu_fd_sc_mcu7t5v0__fillcap_32
XFILLER_20_408 vdd vss gf180mcu_fd_sc_mcu7t5v0__fillcap_8
Xclkbuf_1_1__f_core_clock clknet_0_core_clock clknet_1_1__leaf_core_clock vdd vss
+ gf180mcu_fd_sc_mcu7t5v0__clkbuf_16
XFILLER_11_419 vdd vss gf180mcu_fd_sc_mcu7t5v0__fill_1
XFILLER_23_279 vdd vss gf180mcu_fd_sc_mcu7t5v0__fillcap_4
XTAP_290 vdd vss gf180mcu_fd_sc_mcu7t5v0__filltie
XFILLER_9_283 vdd vss gf180mcu_fd_sc_mcu7t5v0__fill_1
XFILLER_34_37 vdd vss gf180mcu_fd_sc_mcu7t5v0__fillcap_64
XFILLER_46_179 vdd vss gf180mcu_fd_sc_mcu7t5v0__fillcap_64
XFILLER_24_81 vdd vss gf180mcu_fd_sc_mcu7t5v0__fillcap_8
XFILLER_42_385 vdd vss gf180mcu_fd_sc_mcu7t5v0__fillcap_4
XFILLER_52_105 vdd vss gf180mcu_fd_sc_mcu7t5v0__fill_1
XFILLER_28_179 vdd vss gf180mcu_fd_sc_mcu7t5v0__fillcap_64
XFILLER_24_385 vdd vss gf180mcu_fd_sc_mcu7t5v0__fillcap_4
XFILLER_3_212 vdd vss gf180mcu_fd_sc_mcu7t5v0__fill_1
XFILLER_19_70 vdd vss gf180mcu_fd_sc_mcu7t5v0__fill_1
XFILLER_34_105 vdd vss gf180mcu_fd_sc_mcu7t5v0__fill_1
XFILLER_32_2 vdd vss gf180mcu_fd_sc_mcu7t5v0__fillcap_32
XFILLER_40_108 vdd vss gf180mcu_fd_sc_mcu7t5v0__fillcap_64
XFILLER_16_105 vdd vss gf180mcu_fd_sc_mcu7t5v0__fill_1
XPHY_100 vdd vss gf180mcu_fd_sc_mcu7t5v0__endcap
XTAP_119 vdd vss gf180mcu_fd_sc_mcu7t5v0__filltie
XFILLER_39_208 vdd vss gf180mcu_fd_sc_mcu7t5v0__fillcap_4
XPHY_2 vdd vss gf180mcu_fd_sc_mcu7t5v0__endcap
XFILLER_22_108 vdd vss gf180mcu_fd_sc_mcu7t5v0__fillcap_64
XFILLER_7_73 vdd vss gf180mcu_fd_sc_mcu7t5v0__fillcap_64
XFILLER_21_141 vdd vss gf180mcu_fd_sc_mcu7t5v0__fill_1
XFILLER_41_417 vdd vss gf180mcu_fd_sc_mcu7t5v0__fill_2
XFILLER_42_37 vdd vss gf180mcu_fd_sc_mcu7t5v0__fillcap_64
XFILLER_8_101 vdd vss gf180mcu_fd_sc_mcu7t5v0__fillcap_4
XFILLER_23_417 vdd vss gf180mcu_fd_sc_mcu7t5v0__fill_2
XFILLER_50_247 vdd vss gf180mcu_fd_sc_mcu7t5v0__fill_1
XFILLER_5_137 vdd vss gf180mcu_fd_sc_mcu7t5v0__fillcap_4
XFILLER_1_354 vdd vss gf180mcu_fd_sc_mcu7t5v0__fill_1
XFILLER_32_247 vdd vss gf180mcu_fd_sc_mcu7t5v0__fill_1
XTAP_280 vdd vss gf180mcu_fd_sc_mcu7t5v0__filltie
XTAP_291 vdd vss gf180mcu_fd_sc_mcu7t5v0__filltie
XFILLER_14_247 vdd vss gf180mcu_fd_sc_mcu7t5v0__fill_1
XFILLER_49_144 vdd vss gf180mcu_fd_sc_mcu7t5v0__fillcap_64
XFILLER_45_350 vdd vss gf180mcu_fd_sc_mcu7t5v0__fillcap_4
XFILLER_3_405 vdd vss gf180mcu_fd_sc_mcu7t5v0__fillcap_8
XFILLER_50_37 vdd vss gf180mcu_fd_sc_mcu7t5v0__fillcap_64
XFILLER_27_350 vdd vss gf180mcu_fd_sc_mcu7t5v0__fillcap_4
XFILLER_10_250 vdd vss gf180mcu_fd_sc_mcu7t5v0__fillcap_64
XFILLER_6_243 vdd vss gf180mcu_fd_sc_mcu7t5v0__fillcap_4
XFILLER_0_419 vdd vss gf180mcu_fd_sc_mcu7t5v0__fill_1
XFILLER_3_279 vdd vss gf180mcu_fd_sc_mcu7t5v0__fillcap_4
XFILLER_35_70 vdd vss gf180mcu_fd_sc_mcu7t5v0__fill_1
XFILLER_42_172 vdd vss gf180mcu_fd_sc_mcu7t5v0__fillcap_4
XFILLER_30_389 vdd vss gf180mcu_fd_sc_mcu7t5v0__fill_1
XFILLER_25_2 vdd vss gf180mcu_fd_sc_mcu7t5v0__fillcap_64
XFILLER_21_389 vdd vss gf180mcu_fd_sc_mcu7t5v0__fillcap_16
XPHY_101 vdd vss gf180mcu_fd_sc_mcu7t5v0__endcap
XFILLER_12_389 vdd vss gf180mcu_fd_sc_mcu7t5v0__fill_1
XFILLER_47_286 vdd vss gf180mcu_fd_sc_mcu7t5v0__fillcap_64
XPHY_3 vdd vss gf180mcu_fd_sc_mcu7t5v0__endcap
XFILLER_7_41 vdd vss gf180mcu_fd_sc_mcu7t5v0__fillcap_16
XFILLER_53_212 vdd vss gf180mcu_fd_sc_mcu7t5v0__fill_1
XFILLER_29_286 vdd vss gf180mcu_fd_sc_mcu7t5v0__fillcap_64
XFILLER_8_179 vdd vss gf180mcu_fd_sc_mcu7t5v0__fillcap_64
XFILLER_4_385 vdd vss gf180mcu_fd_sc_mcu7t5v0__fillcap_4
XFILLER_35_212 vdd vss gf180mcu_fd_sc_mcu7t5v0__fill_1
XFILLER_41_215 vdd vss gf180mcu_fd_sc_mcu7t5v0__fillcap_64
XFILLER_17_212 vdd vss gf180mcu_fd_sc_mcu7t5v0__fill_1
XFILLER_43_70 vdd vss gf180mcu_fd_sc_mcu7t5v0__fill_1
XFILLER_23_215 vdd vss gf180mcu_fd_sc_mcu7t5v0__fillcap_64
XFILLER_48_392 vdd vss gf180mcu_fd_sc_mcu7t5v0__fillcap_16
XFILLER_2_108 vdd vss gf180mcu_fd_sc_mcu7t5v0__fillcap_64
XFILLER_48_37 vdd vss gf180mcu_fd_sc_mcu7t5v0__fillcap_64
XTAP_270 vdd vss gf180mcu_fd_sc_mcu7t5v0__filltie
XTAP_281 vdd vss gf180mcu_fd_sc_mcu7t5v0__filltie
XTAP_292 vdd vss gf180mcu_fd_sc_mcu7t5v0__filltie
XFILLER_46_318 vdd vss gf180mcu_fd_sc_mcu7t5v0__fill_1
XFILLER_54_384 vdd vss gf180mcu_fd_sc_mcu7t5v0__fill_1
XFILLER_13_73 vdd vss gf180mcu_fd_sc_mcu7t5v0__fillcap_64
XFILLER_1_141 vdd vss gf180mcu_fd_sc_mcu7t5v0__fill_1
XANTENNA__5__I clknet_1_1__leaf_net2 vdd vss gf180mcu_fd_sc_mcu7t5v0__antenna
XFILLER_28_318 vdd vss gf180mcu_fd_sc_mcu7t5v0__fill_1
XFILLER_51_354 vdd vss gf180mcu_fd_sc_mcu7t5v0__fill_1
XFILLER_3_417 vdd vss gf180mcu_fd_sc_mcu7t5v0__fill_2
XFILLER_42_321 vdd vss gf180mcu_fd_sc_mcu7t5v0__fillcap_64
XFILLER_37_137 vdd vss gf180mcu_fd_sc_mcu7t5v0__fillcap_4
XFILLER_33_354 vdd vss gf180mcu_fd_sc_mcu7t5v0__fill_1
XFILLER_24_321 vdd vss gf180mcu_fd_sc_mcu7t5v0__fillcap_64
XFILLER_19_137 vdd vss gf180mcu_fd_sc_mcu7t5v0__fillcap_4
XFILLER_47_413 vdd vss gf180mcu_fd_sc_mcu7t5v0__fillcap_4
XFILLER_15_354 vdd vss gf180mcu_fd_sc_mcu7t5v0__fill_1
XFILLER_51_70 vdd vss gf180mcu_fd_sc_mcu7t5v0__fill_1
XFILLER_53_405 vdd vss gf180mcu_fd_sc_mcu7t5v0__fillcap_8
XFILLER_18_2 vdd vss gf180mcu_fd_sc_mcu7t5v0__fillcap_32
XFILLER_21_357 vdd vss gf180mcu_fd_sc_mcu7t5v0__fillcap_32
XFILLER_29_413 vdd vss gf180mcu_fd_sc_mcu7t5v0__fillcap_4
XFILLER_44_416 vdd vss gf180mcu_fd_sc_mcu7t5v0__fillcap_4
XPHY_102 vdd vss gf180mcu_fd_sc_mcu7t5v0__endcap
XFILLER_21_73 vdd vss gf180mcu_fd_sc_mcu7t5v0__fillcap_64
XFILLER_35_405 vdd vss gf180mcu_fd_sc_mcu7t5v0__fillcap_8
XPHY_4 vdd vss gf180mcu_fd_sc_mcu7t5v0__endcap
XFILLER_30_176 vdd vss gf180mcu_fd_sc_mcu7t5v0__fill_1
XFILLER_50_408 vdd vss gf180mcu_fd_sc_mcu7t5v0__fillcap_8
XFILLER_7_350 vdd vss gf180mcu_fd_sc_mcu7t5v0__fillcap_4
XFILLER_38_243 vdd vss gf180mcu_fd_sc_mcu7t5v0__fillcap_4
XFILLER_53_279 vdd vss gf180mcu_fd_sc_mcu7t5v0__fillcap_4
XFILLER_26_416 vdd vss gf180mcu_fd_sc_mcu7t5v0__fillcap_4
XFILLER_41_419 vdd vss gf180mcu_fd_sc_mcu7t5v0__fill_1
XFILLER_17_405 vdd vss gf180mcu_fd_sc_mcu7t5v0__fillcap_8
XFILLER_12_176 vdd vss gf180mcu_fd_sc_mcu7t5v0__fill_1
XFILLER_32_408 vdd vss gf180mcu_fd_sc_mcu7t5v0__fillcap_8
XFILLER_23_419 vdd vss gf180mcu_fd_sc_mcu7t5v0__fill_1
XFILLER_35_279 vdd vss gf180mcu_fd_sc_mcu7t5v0__fillcap_4
XFILLER_14_408 vdd vss gf180mcu_fd_sc_mcu7t5v0__fillcap_8
XFILLER_1_389 vdd vss gf180mcu_fd_sc_mcu7t5v0__fillcap_16
XFILLER_17_279 vdd vss gf180mcu_fd_sc_mcu7t5v0__fillcap_4
XFILLER_4_172 vdd vss gf180mcu_fd_sc_mcu7t5v0__fillcap_4
XTAP_260 vdd vss gf180mcu_fd_sc_mcu7t5v0__filltie
XTAP_271 vdd vss gf180mcu_fd_sc_mcu7t5v0__filltie
XTAP_282 vdd vss gf180mcu_fd_sc_mcu7t5v0__filltie
XTAP_293 vdd vss gf180mcu_fd_sc_mcu7t5v0__filltie
XFILLER_54_352 vdd vss gf180mcu_fd_sc_mcu7t5v0__fillcap_32
XFILLER_9_286 vdd vss gf180mcu_fd_sc_mcu7t5v0__fillcap_64
XFILLER_48_2 vdd vss gf180mcu_fd_sc_mcu7t5v0__fillcap_32
XFILLER_36_385 vdd vss gf180mcu_fd_sc_mcu7t5v0__fillcap_4
XFILLER_11_208 vdd vss gf180mcu_fd_sc_mcu7t5v0__fillcap_4
XFILLER_46_105 vdd vss gf180mcu_fd_sc_mcu7t5v0__fill_1
XFILLER_1_66 vdd vss gf180mcu_fd_sc_mcu7t5v0__fillcap_4
XFILLER_18_385 vdd vss gf180mcu_fd_sc_mcu7t5v0__fillcap_4
XFILLER_52_108 vdd vss gf180mcu_fd_sc_mcu7t5v0__fillcap_64
XFILLER_28_105 vdd vss gf180mcu_fd_sc_mcu7t5v0__fill_1
XFILLER_51_141 vdd vss gf180mcu_fd_sc_mcu7t5v0__fill_1
XFILLER_3_215 vdd vss gf180mcu_fd_sc_mcu7t5v0__fillcap_64
XFILLER_19_73 vdd vss gf180mcu_fd_sc_mcu7t5v0__fillcap_64
XFILLER_34_108 vdd vss gf180mcu_fd_sc_mcu7t5v0__fillcap_64
XFILLER_30_314 vdd vss gf180mcu_fd_sc_mcu7t5v0__fillcap_4
XFILLER_53_417 vdd vss gf180mcu_fd_sc_mcu7t5v0__fill_2
XFILLER_33_141 vdd vss gf180mcu_fd_sc_mcu7t5v0__fill_1
XFILLER_16_108 vdd vss gf180mcu_fd_sc_mcu7t5v0__fillcap_64
XFILLER_12_314 vdd vss gf180mcu_fd_sc_mcu7t5v0__fillcap_4
XFILLER_8_318 vdd vss gf180mcu_fd_sc_mcu7t5v0__fill_1
XPHY_103 vdd vss gf180mcu_fd_sc_mcu7t5v0__endcap
XPHY_5 vdd vss gf180mcu_fd_sc_mcu7t5v0__endcap
XFILLER_15_141 vdd vss gf180mcu_fd_sc_mcu7t5v0__fill_1
XFILLER_35_417 vdd vss gf180mcu_fd_sc_mcu7t5v0__fill_2
XFILLER_7_65 vdd vss gf180mcu_fd_sc_mcu7t5v0__fillcap_4
XFILLER_30_2 vdd vss gf180mcu_fd_sc_mcu7t5v0__fillcap_32
XFILLER_21_144 vdd vss gf180mcu_fd_sc_mcu7t5v0__fillcap_64
XFILLER_17_417 vdd vss gf180mcu_fd_sc_mcu7t5v0__fill_2
XFILLER_44_247 vdd vss gf180mcu_fd_sc_mcu7t5v0__fill_1
XFILLER_4_321 vdd vss gf180mcu_fd_sc_mcu7t5v0__fillcap_64
XTAP_420 vdd vss gf180mcu_fd_sc_mcu7t5v0__filltie
XFILLER_26_247 vdd vss gf180mcu_fd_sc_mcu7t5v0__fill_1
XFILLER_1_357 vdd vss gf180mcu_fd_sc_mcu7t5v0__fillcap_32
XFILLER_27_73 vdd vss gf180mcu_fd_sc_mcu7t5v0__fillcap_64
XFILLER_9_413 vdd vss gf180mcu_fd_sc_mcu7t5v0__fillcap_4
XFILLER_40_250 vdd vss gf180mcu_fd_sc_mcu7t5v0__fillcap_64
XFILLER_31_283 vdd vss gf180mcu_fd_sc_mcu7t5v0__fill_1
XTAP_250 vdd vss gf180mcu_fd_sc_mcu7t5v0__filltie
XTAP_261 vdd vss gf180mcu_fd_sc_mcu7t5v0__filltie
XTAP_272 vdd vss gf180mcu_fd_sc_mcu7t5v0__filltie
XTAP_283 vdd vss gf180mcu_fd_sc_mcu7t5v0__filltie
XTAP_294 vdd vss gf180mcu_fd_sc_mcu7t5v0__filltie
XFILLER_39_350 vdd vss gf180mcu_fd_sc_mcu7t5v0__fillcap_4
XFILLER_6_416 vdd vss gf180mcu_fd_sc_mcu7t5v0__fillcap_4
XFILLER_22_250 vdd vss gf180mcu_fd_sc_mcu7t5v0__fillcap_64
XFILLER_8_2 vdd vss gf180mcu_fd_sc_mcu7t5v0__fillcap_32
XFILLER_13_283 vdd vss gf180mcu_fd_sc_mcu7t5v0__fill_1
XFILLER_51_389 vdd vss gf180mcu_fd_sc_mcu7t5v0__fillcap_16
XFILLER_3_419 vdd vss gf180mcu_fd_sc_mcu7t5v0__fill_1
XFILLER_42_389 vdd vss gf180mcu_fd_sc_mcu7t5v0__fill_1
XFILLER_33_389 vdd vss gf180mcu_fd_sc_mcu7t5v0__fillcap_16
Xclkbuf_1_1__f_net2 clknet_0_net2 clknet_1_1__leaf_net2 vdd vss gf180mcu_fd_sc_mcu7t5v0__clkbuf_16
XFILLER_24_389 vdd vss gf180mcu_fd_sc_mcu7t5v0__fill_1
XFILLER_36_172 vdd vss gf180mcu_fd_sc_mcu7t5v0__fillcap_4
XFILLER_15_389 vdd vss gf180mcu_fd_sc_mcu7t5v0__fillcap_16
XFILLER_35_73 vdd vss gf180mcu_fd_sc_mcu7t5v0__fillcap_64
XFILLER_18_172 vdd vss gf180mcu_fd_sc_mcu7t5v0__fillcap_4
XPHY_104 vdd vss gf180mcu_fd_sc_mcu7t5v0__endcap
XFILLER_20_392 vdd vss gf180mcu_fd_sc_mcu7t5v0__fillcap_16
XFILLER_47_212 vdd vss gf180mcu_fd_sc_mcu7t5v0__fill_1
XPHY_6 vdd vss gf180mcu_fd_sc_mcu7t5v0__endcap
XFILLER_30_101 vdd vss gf180mcu_fd_sc_mcu7t5v0__fillcap_4
XFILLER_53_215 vdd vss gf180mcu_fd_sc_mcu7t5v0__fillcap_64
XFILLER_23_2 vdd vss gf180mcu_fd_sc_mcu7t5v0__fillcap_64
XFILLER_29_212 vdd vss gf180mcu_fd_sc_mcu7t5v0__fill_1
XFILLER_12_101 vdd vss gf180mcu_fd_sc_mcu7t5v0__fillcap_4
XFILLER_8_105 vdd vss gf180mcu_fd_sc_mcu7t5v0__fill_1
XFILLER_35_215 vdd vss gf180mcu_fd_sc_mcu7t5v0__fillcap_64
XTAP_421 vdd vss gf180mcu_fd_sc_mcu7t5v0__filltie