* NGSPICE file created from controller_core.ext - technology: gf180mcuC

* Black-box entry subcircuit for gf180mcu_fd_sc_mcu7t5v0__fill_2 abstract view
.subckt gf180mcu_fd_sc_mcu7t5v0__fill_2 VDD VSS
.ends

* Black-box entry subcircuit for gf180mcu_fd_sc_mcu7t5v0__filltie abstract view
.subckt gf180mcu_fd_sc_mcu7t5v0__filltie VDD VSS
.ends

* Black-box entry subcircuit for gf180mcu_fd_sc_mcu7t5v0__fillcap_16 abstract view
.subckt gf180mcu_fd_sc_mcu7t5v0__fillcap_16 VDD VSS
.ends

* Black-box entry subcircuit for gf180mcu_fd_sc_mcu7t5v0__dffq_1 abstract view
.subckt gf180mcu_fd_sc_mcu7t5v0__dffq_1 D CLK Q VDD VSS
.ends

* Black-box entry subcircuit for gf180mcu_fd_sc_mcu7t5v0__fill_1 abstract view
.subckt gf180mcu_fd_sc_mcu7t5v0__fill_1 VDD VSS
.ends

* Black-box entry subcircuit for gf180mcu_fd_sc_mcu7t5v0__nor2_1 abstract view
.subckt gf180mcu_fd_sc_mcu7t5v0__nor2_1 A1 A2 ZN VDD VSS
.ends

* Black-box entry subcircuit for gf180mcu_fd_sc_mcu7t5v0__clkbuf_1 abstract view
.subckt gf180mcu_fd_sc_mcu7t5v0__clkbuf_1 I Z VDD VSS
.ends

* Black-box entry subcircuit for gf180mcu_fd_sc_mcu7t5v0__antenna abstract view
.subckt gf180mcu_fd_sc_mcu7t5v0__antenna I VDD VSS
.ends

* Black-box entry subcircuit for gf180mcu_fd_sc_mcu7t5v0__fillcap_4 abstract view
.subckt gf180mcu_fd_sc_mcu7t5v0__fillcap_4 VDD VSS
.ends

* Black-box entry subcircuit for gf180mcu_fd_sc_mcu7t5v0__fillcap_8 abstract view
.subckt gf180mcu_fd_sc_mcu7t5v0__fillcap_8 VDD VSS
.ends

* Black-box entry subcircuit for gf180mcu_fd_sc_mcu7t5v0__nor3_1 abstract view
.subckt gf180mcu_fd_sc_mcu7t5v0__nor3_1 A1 A2 A3 ZN VDD VSS
.ends

* Black-box entry subcircuit for gf180mcu_fd_sc_mcu7t5v0__oai211_1 abstract view
.subckt gf180mcu_fd_sc_mcu7t5v0__oai211_1 A1 A2 B C ZN VDD VSS
.ends

* Black-box entry subcircuit for gf180mcu_fd_sc_mcu7t5v0__buf_1 abstract view
.subckt gf180mcu_fd_sc_mcu7t5v0__buf_1 I Z VDD VSS
.ends

* Black-box entry subcircuit for gf180mcu_fd_sc_mcu7t5v0__aoi22_1 abstract view
.subckt gf180mcu_fd_sc_mcu7t5v0__aoi22_1 A1 A2 B1 B2 ZN VDD VSS
.ends

* Black-box entry subcircuit for gf180mcu_fd_sc_mcu7t5v0__fillcap_32 abstract view
.subckt gf180mcu_fd_sc_mcu7t5v0__fillcap_32 VDD VSS
.ends

* Black-box entry subcircuit for gf180mcu_fd_sc_mcu7t5v0__clkinv_1 abstract view
.subckt gf180mcu_fd_sc_mcu7t5v0__clkinv_1 I ZN VDD VSS
.ends

* Black-box entry subcircuit for gf180mcu_fd_sc_mcu7t5v0__xor2_1 abstract view
.subckt gf180mcu_fd_sc_mcu7t5v0__xor2_1 A1 A2 Z VDD VSS
.ends

* Black-box entry subcircuit for gf180mcu_fd_sc_mcu7t5v0__and2_1 abstract view
.subckt gf180mcu_fd_sc_mcu7t5v0__and2_1 A1 A2 Z VDD VSS
.ends

* Black-box entry subcircuit for gf180mcu_fd_sc_mcu7t5v0__oai22_1 abstract view
.subckt gf180mcu_fd_sc_mcu7t5v0__oai22_1 A1 A2 B1 B2 ZN VDD VSS
.ends

* Black-box entry subcircuit for gf180mcu_fd_sc_mcu7t5v0__fillcap_64 abstract view
.subckt gf180mcu_fd_sc_mcu7t5v0__fillcap_64 VDD VSS
.ends

* Black-box entry subcircuit for gf180mcu_fd_sc_mcu7t5v0__nand2_1 abstract view
.subckt gf180mcu_fd_sc_mcu7t5v0__nand2_1 A1 A2 ZN VDD VSS
.ends

* Black-box entry subcircuit for gf180mcu_fd_sc_mcu7t5v0__clkbuf_2 abstract view
.subckt gf180mcu_fd_sc_mcu7t5v0__clkbuf_2 I Z VDD VSS
.ends

* Black-box entry subcircuit for gf180mcu_fd_sc_mcu7t5v0__oai21_1 abstract view
.subckt gf180mcu_fd_sc_mcu7t5v0__oai21_1 A1 A2 B ZN VDD VSS
.ends

* Black-box entry subcircuit for gf180mcu_fd_sc_mcu7t5v0__clkbuf_16 abstract view
.subckt gf180mcu_fd_sc_mcu7t5v0__clkbuf_16 I Z VDD VSS
.ends

* Black-box entry subcircuit for gf180mcu_fd_sc_mcu7t5v0__buf_2 abstract view
.subckt gf180mcu_fd_sc_mcu7t5v0__buf_2 I Z VDD VSS
.ends

* Black-box entry subcircuit for gf180mcu_fd_sc_mcu7t5v0__dlyd_4 abstract view
.subckt gf180mcu_fd_sc_mcu7t5v0__dlyd_4 I Z VDD VSS
.ends

* Black-box entry subcircuit for gf180mcu_fd_sc_mcu7t5v0__mux2_2 abstract view
.subckt gf180mcu_fd_sc_mcu7t5v0__mux2_2 I0 I1 S Z VDD VSS
.ends

* Black-box entry subcircuit for gf180mcu_fd_sc_mcu7t5v0__nand3_1 abstract view
.subckt gf180mcu_fd_sc_mcu7t5v0__nand3_1 A1 A2 A3 ZN VDD VSS
.ends

* Black-box entry subcircuit for gf180mcu_fd_sc_mcu7t5v0__aoi21_1 abstract view
.subckt gf180mcu_fd_sc_mcu7t5v0__aoi21_1 A1 A2 B ZN VDD VSS
.ends

* Black-box entry subcircuit for gf180mcu_fd_sc_mcu7t5v0__nor4_2 abstract view
.subckt gf180mcu_fd_sc_mcu7t5v0__nor4_2 A1 A2 A3 A4 ZN VDD VSS
.ends

* Black-box entry subcircuit for gf180mcu_fd_sc_mcu7t5v0__dlyd_1 abstract view
.subckt gf180mcu_fd_sc_mcu7t5v0__dlyd_1 I Z VDD VSS
.ends

* Black-box entry subcircuit for gf180mcu_fd_sc_mcu7t5v0__clkbuf_3 abstract view
.subckt gf180mcu_fd_sc_mcu7t5v0__clkbuf_3 I Z VDD VSS
.ends

* Black-box entry subcircuit for gf180mcu_fd_sc_mcu7t5v0__inv_1 abstract view
.subckt gf180mcu_fd_sc_mcu7t5v0__inv_1 I ZN VDD VSS
.ends

* Black-box entry subcircuit for gf180mcu_fd_sc_mcu7t5v0__and3_1 abstract view
.subckt gf180mcu_fd_sc_mcu7t5v0__and3_1 A1 A2 A3 Z VDD VSS
.ends

* Black-box entry subcircuit for gf180mcu_fd_sc_mcu7t5v0__oai21_2 abstract view
.subckt gf180mcu_fd_sc_mcu7t5v0__oai21_2 A1 A2 B ZN VDD VSS
.ends

* Black-box entry subcircuit for gf180mcu_fd_sc_mcu7t5v0__nand4_4 abstract view
.subckt gf180mcu_fd_sc_mcu7t5v0__nand4_4 A1 A2 A3 A4 ZN VDD VSS
.ends

* Black-box entry subcircuit for gf180mcu_fd_sc_mcu7t5v0__oai221_4 abstract view
.subckt gf180mcu_fd_sc_mcu7t5v0__oai221_4 A1 A2 B1 B2 C ZN VDD VSS
.ends

* Black-box entry subcircuit for gf180mcu_fd_sc_mcu7t5v0__nor4_4 abstract view
.subckt gf180mcu_fd_sc_mcu7t5v0__nor4_4 A1 A2 A3 A4 ZN VDD VSS
.ends

* Black-box entry subcircuit for gf180mcu_fd_sc_mcu7t5v0__oai31_1 abstract view
.subckt gf180mcu_fd_sc_mcu7t5v0__oai31_1 A1 A2 A3 B ZN VDD VSS
.ends

* Black-box entry subcircuit for gf180mcu_fd_sc_mcu7t5v0__aoi22_2 abstract view
.subckt gf180mcu_fd_sc_mcu7t5v0__aoi22_2 A1 A2 B1 B2 ZN VDD VSS
.ends

* Black-box entry subcircuit for gf180mcu_fd_sc_mcu7t5v0__aoi211_1 abstract view
.subckt gf180mcu_fd_sc_mcu7t5v0__aoi211_1 A1 A2 B C ZN VDD VSS
.ends

* Black-box entry subcircuit for gf180mcu_fd_sc_mcu7t5v0__aoi221_1 abstract view
.subckt gf180mcu_fd_sc_mcu7t5v0__aoi221_1 A1 A2 B1 B2 C ZN VDD VSS
.ends

* Black-box entry subcircuit for gf180mcu_fd_sc_mcu7t5v0__nand4_1 abstract view
.subckt gf180mcu_fd_sc_mcu7t5v0__nand4_1 A1 A2 A3 A4 ZN VDD VSS
.ends

* Black-box entry subcircuit for gf180mcu_fd_sc_mcu7t5v0__and4_1 abstract view
.subckt gf180mcu_fd_sc_mcu7t5v0__and4_1 A1 A2 A3 A4 Z VDD VSS
.ends

* Black-box entry subcircuit for gf180mcu_fd_sc_mcu7t5v0__oai211_2 abstract view
.subckt gf180mcu_fd_sc_mcu7t5v0__oai211_2 A1 A2 B C ZN VDD VSS
.ends

* Black-box entry subcircuit for gf180mcu_fd_sc_mcu7t5v0__aoi222_1 abstract view
.subckt gf180mcu_fd_sc_mcu7t5v0__aoi222_1 A1 A2 B1 B2 C1 C2 ZN VDD VSS
.ends

* Black-box entry subcircuit for gf180mcu_fd_sc_mcu7t5v0__oai221_1 abstract view
.subckt gf180mcu_fd_sc_mcu7t5v0__oai221_1 A1 A2 B1 B2 C ZN VDD VSS
.ends

* Black-box entry subcircuit for gf180mcu_fd_sc_mcu7t5v0__oai32_1 abstract view
.subckt gf180mcu_fd_sc_mcu7t5v0__oai32_1 A1 A2 A3 B1 B2 ZN VDD VSS
.ends

* Black-box entry subcircuit for gf180mcu_fd_sc_mcu7t5v0__nand3_4 abstract view
.subckt gf180mcu_fd_sc_mcu7t5v0__nand3_4 A1 A2 A3 ZN VDD VSS
.ends

* Black-box entry subcircuit for gf180mcu_fd_sc_mcu7t5v0__endcap abstract view
.subckt gf180mcu_fd_sc_mcu7t5v0__endcap VDD VSS
.ends

* Black-box entry subcircuit for gf180mcu_fd_sc_mcu7t5v0__oai22_2 abstract view
.subckt gf180mcu_fd_sc_mcu7t5v0__oai22_2 A1 A2 B1 B2 ZN VDD VSS
.ends

* Black-box entry subcircuit for gf180mcu_fd_sc_mcu7t5v0__nor3_2 abstract view
.subckt gf180mcu_fd_sc_mcu7t5v0__nor3_2 A1 A2 A3 ZN VDD VSS
.ends

* Black-box entry subcircuit for gf180mcu_fd_sc_mcu7t5v0__dlyb_1 abstract view
.subckt gf180mcu_fd_sc_mcu7t5v0__dlyb_1 I Z VDD VSS
.ends

* Black-box entry subcircuit for gf180mcu_fd_sc_mcu7t5v0__or2_1 abstract view
.subckt gf180mcu_fd_sc_mcu7t5v0__or2_1 A1 A2 Z VDD VSS
.ends

* Black-box entry subcircuit for gf180mcu_fd_sc_mcu7t5v0__nor4_1 abstract view
.subckt gf180mcu_fd_sc_mcu7t5v0__nor4_1 A1 A2 A3 A4 ZN VDD VSS
.ends

* Black-box entry subcircuit for gf180mcu_fd_sc_mcu7t5v0__nand3_2 abstract view
.subckt gf180mcu_fd_sc_mcu7t5v0__nand3_2 A1 A2 A3 ZN VDD VSS
.ends

* Black-box entry subcircuit for gf180mcu_fd_sc_mcu7t5v0__nand4_2 abstract view
.subckt gf180mcu_fd_sc_mcu7t5v0__nand4_2 A1 A2 A3 A4 ZN VDD VSS
.ends

* Black-box entry subcircuit for gf180mcu_fd_sc_mcu7t5v0__dlyc_1 abstract view
.subckt gf180mcu_fd_sc_mcu7t5v0__dlyc_1 I Z VDD VSS
.ends

* Black-box entry subcircuit for gf180mcu_fd_sc_mcu7t5v0__aoi211_2 abstract view
.subckt gf180mcu_fd_sc_mcu7t5v0__aoi211_2 A1 A2 B C ZN VDD VSS
.ends

* Black-box entry subcircuit for gf180mcu_fd_sc_mcu7t5v0__nor2_2 abstract view
.subckt gf180mcu_fd_sc_mcu7t5v0__nor2_2 A1 A2 ZN VDD VSS
.ends

* Black-box entry subcircuit for gf180mcu_fd_sc_mcu7t5v0__aoi222_2 abstract view
.subckt gf180mcu_fd_sc_mcu7t5v0__aoi222_2 A1 A2 B1 B2 C1 C2 ZN VDD VSS
.ends

* Black-box entry subcircuit for gf180mcu_fd_sc_mcu7t5v0__oai221_2 abstract view
.subckt gf180mcu_fd_sc_mcu7t5v0__oai221_2 A1 A2 B1 B2 C ZN VDD VSS
.ends

* Black-box entry subcircuit for gf180mcu_fd_sc_mcu7t5v0__dffq_2 abstract view
.subckt gf180mcu_fd_sc_mcu7t5v0__dffq_2 D CLK Q VDD VSS
.ends

* Black-box entry subcircuit for gf180mcu_fd_sc_mcu7t5v0__aoi221_2 abstract view
.subckt gf180mcu_fd_sc_mcu7t5v0__aoi221_2 A1 A2 B1 B2 C ZN VDD VSS
.ends

* Black-box entry subcircuit for gf180mcu_fd_sc_mcu7t5v0__clkinv_2 abstract view
.subckt gf180mcu_fd_sc_mcu7t5v0__clkinv_2 I ZN VDD VSS
.ends

* Black-box entry subcircuit for gf180mcu_fd_sc_mcu7t5v0__or3_1 abstract view
.subckt gf180mcu_fd_sc_mcu7t5v0__or3_1 A1 A2 A3 Z VDD VSS
.ends

* Black-box entry subcircuit for gf180mcu_fd_sc_mcu7t5v0__xnor2_1 abstract view
.subckt gf180mcu_fd_sc_mcu7t5v0__xnor2_1 A1 A2 ZN VDD VSS
.ends

.subckt controller_core clock clock_out[0] clock_out[1] clock_out[2] clock_out[3]
+ clock_out[4] clock_out[5] clock_out[6] clock_out[7] clock_out[8] clock_out[9] col_select_left[0]
+ col_select_left[1] col_select_left[2] col_select_left[3] col_select_left[4] col_select_left[5]
+ col_select_right[0] col_select_right[1] col_select_right[2] col_select_right[3]
+ col_select_right[4] col_select_right[5] data_out_left[0] data_out_left[10] data_out_left[11]
+ data_out_left[12] data_out_left[13] data_out_left[14] data_out_left[15] data_out_left[1]
+ data_out_left[2] data_out_left[3] data_out_left[4] data_out_left[5] data_out_left[6]
+ data_out_left[7] data_out_left[8] data_out_left[9] data_out_right[0] data_out_right[10]
+ data_out_right[11] data_out_right[12] data_out_right[13] data_out_right[14] data_out_right[15]
+ data_out_right[1] data_out_right[2] data_out_right[3] data_out_right[4] data_out_right[5]
+ data_out_right[6] data_out_right[7] data_out_right[8] data_out_right[9] inverter_select[0]
+ inverter_select[1] inverter_select[2] inverter_select[3] inverter_select[4] inverter_select[5]
+ inverter_select[6] inverter_select[7] inverter_select[8] inverter_select[9] io_control_trigger_in
+ io_control_trigger_oeb io_driver_io_oeb[0] io_driver_io_oeb[10] io_driver_io_oeb[11]
+ io_driver_io_oeb[12] io_driver_io_oeb[13] io_driver_io_oeb[14] io_driver_io_oeb[15]
+ io_driver_io_oeb[16] io_driver_io_oeb[17] io_driver_io_oeb[18] io_driver_io_oeb[19]
+ io_driver_io_oeb[1] io_driver_io_oeb[2] io_driver_io_oeb[3] io_driver_io_oeb[4]
+ io_driver_io_oeb[5] io_driver_io_oeb[6] io_driver_io_oeb[7] io_driver_io_oeb[8]
+ io_driver_io_oeb[9] io_latch_data_in io_latch_data_oeb io_reset_n_in io_reset_n_oeb
+ io_update_cycle_complete_oeb io_update_cycle_complete_out la_data_in[0] la_data_in[10]
+ la_data_in[11] la_data_in[12] la_data_in[13] la_data_in[14] la_data_in[15] la_data_in[16]
+ la_data_in[17] la_data_in[1] la_data_in[2] la_data_in[3] la_data_in[4] la_data_in[5]
+ la_data_in[6] la_data_in[7] la_data_in[8] la_data_in[9] la_oenb[0] la_oenb[10] la_oenb[11]
+ la_oenb[12] la_oenb[13] la_oenb[14] la_oenb[15] la_oenb[16] la_oenb[17] la_oenb[1]
+ la_oenb[2] la_oenb[3] la_oenb[4] la_oenb[5] la_oenb[6] la_oenb[7] la_oenb[8] la_oenb[9]
+ mem_address_left[0] mem_address_left[1] mem_address_left[2] mem_address_left[3]
+ mem_address_left[4] mem_address_left[5] mem_address_left[6] mem_address_left[7]
+ mem_address_left[8] mem_address_left[9] mem_address_right[0] mem_address_right[1]
+ mem_address_right[2] mem_address_right[3] mem_address_right[4] mem_address_right[5]
+ mem_address_right[6] mem_address_right[7] mem_address_right[8] mem_address_right[9]
+ mem_write_n[0] mem_write_n[1] mem_write_n[2] mem_write_n[3] mem_write_n[4] mem_write_n[5]
+ mem_write_n[6] mem_write_n[7] mem_write_n[8] mem_write_n[9] output_active_left output_active_right
+ row_col_select[0] row_col_select[1] row_col_select[2] row_col_select[3] row_col_select[4]
+ row_col_select[5] row_col_select[6] row_col_select[7] row_col_select[8] row_col_select[9]
+ row_select_left[0] row_select_left[1] row_select_left[2] row_select_left[3] row_select_left[4]
+ row_select_left[5] row_select_right[0] row_select_right[1] row_select_right[2] row_select_right[3]
+ row_select_right[4] row_select_right[5] spi_data[0] spi_data[10] spi_data[11] spi_data[12]
+ spi_data[13] spi_data[14] spi_data[15] spi_data[16] spi_data[17] spi_data[18] spi_data[19]
+ spi_data[1] spi_data[20] spi_data[21] spi_data[22] spi_data[23] spi_data[24] spi_data[25]
+ spi_data[26] spi_data[27] spi_data[28] spi_data[29] spi_data[2] spi_data[30] spi_data[31]
+ spi_data[3] spi_data[4] spi_data[5] spi_data[6] spi_data[7] spi_data[8] spi_data[9]
+ spi_data_clock vdd vss
XFILLER_45_1396 vdd vss gf180mcu_fd_sc_mcu7t5v0__fill_2
XTAP_199 vdd vss gf180mcu_fd_sc_mcu7t5v0__filltie
XTAP_188 vdd vss gf180mcu_fd_sc_mcu7t5v0__filltie
XTAP_177 vdd vss gf180mcu_fd_sc_mcu7t5v0__filltie
XFILLER_36_19 vdd vss gf180mcu_fd_sc_mcu7t5v0__fillcap_16
X_3155_ spi_data_crossing\[18\].A clknet_leaf_5_clock spi_data_crossing\[18\].data_sync
+ vdd vss gf180mcu_fd_sc_mcu7t5v0__dffq_1
XFILLER_27_417 vdd vss gf180mcu_fd_sc_mcu7t5v0__fill_2
XFILLER_27_406 vdd vss gf180mcu_fd_sc_mcu7t5v0__fill_2
XFILLER_27_428 vdd vss gf180mcu_fd_sc_mcu7t5v0__fill_1
X_3086_ _0220_ clknet_leaf_29_clock u1.timer\[0\] vdd vss gf180mcu_fd_sc_mcu7t5v0__dffq_1
X_2106_ _0404_ _0495_ _0496_ vdd vss gf180mcu_fd_sc_mcu7t5v0__nor2_1
X_2037_ _0448_ _0076_ vdd vss gf180mcu_fd_sc_mcu7t5v0__clkbuf_1
XANTENNA__2246__A3 _0586_ vdd vss gf180mcu_fd_sc_mcu7t5v0__antenna
XFILLER_23_601 vdd vss gf180mcu_fd_sc_mcu7t5v0__fillcap_4
XFILLER_23_623 vdd vss gf180mcu_fd_sc_mcu7t5v0__fill_2
XFILLER_22_111 vdd vss gf180mcu_fd_sc_mcu7t5v0__fillcap_4
XFILLER_23_645 vdd vss gf180mcu_fd_sc_mcu7t5v0__fill_1
XFILLER_22_166 vdd vss gf180mcu_fd_sc_mcu7t5v0__fillcap_8
X_2939_ _0081_ clknet_leaf_4_clock u1.ordering_complete\[1\] vdd vss gf180mcu_fd_sc_mcu7t5v0__dffq_1
XANTENNA__1757__A2 _1342_ vdd vss gf180mcu_fd_sc_mcu7t5v0__antenna
XANTENNA__2706__A1 _0958_ vdd vss gf180mcu_fd_sc_mcu7t5v0__antenna
XFILLER_11_1064 vdd vss gf180mcu_fd_sc_mcu7t5v0__fill_1
XFILLER_2_549 vdd vss gf180mcu_fd_sc_mcu7t5v0__fillcap_4
XANTENNA__3171__D spi_data_crossing\[26\].A vdd vss gf180mcu_fd_sc_mcu7t5v0__antenna
XFILLER_19_918 vdd vss gf180mcu_fd_sc_mcu7t5v0__fillcap_4
XFILLER_27_962 vdd vss gf180mcu_fd_sc_mcu7t5v0__fill_2
XFILLER_41_431 vdd vss gf180mcu_fd_sc_mcu7t5v0__fill_2
XANTENNA__1479__I u1.ordering_complete\[11\] vdd vss gf180mcu_fd_sc_mcu7t5v0__antenna
XANTENNA__1445__A1 _1057_ vdd vss gf180mcu_fd_sc_mcu7t5v0__antenna
XANTENNA__2642__B1 _1260_ vdd vss gf180mcu_fd_sc_mcu7t5v0__antenna
XFILLER_42_987 vdd vss gf180mcu_fd_sc_mcu7t5v0__fillcap_4
XFILLER_41_453 vdd vss gf180mcu_fd_sc_mcu7t5v0__fill_2
XANTENNA__1996__A2 _0421_ vdd vss gf180mcu_fd_sc_mcu7t5v0__antenna
XFILLER_13_144 vdd vss gf180mcu_fd_sc_mcu7t5v0__fill_1
XFILLER_13_166 vdd vss gf180mcu_fd_sc_mcu7t5v0__fillcap_4
XFILLER_42_62 vdd vss gf180mcu_fd_sc_mcu7t5v0__fillcap_4
XFILLER_6_811 vdd vss gf180mcu_fd_sc_mcu7t5v0__fillcap_4
XANTENNA__2796__I1 _0364_ vdd vss gf180mcu_fd_sc_mcu7t5v0__antenna
XFILLER_5_310 vdd vss gf180mcu_fd_sc_mcu7t5v0__fillcap_4
XFILLER_5_365 vdd vss gf180mcu_fd_sc_mcu7t5v0__fillcap_4
XFILLER_5_354 vdd vss gf180mcu_fd_sc_mcu7t5v0__fill_1
XANTENNA__2712__A4 _0961_ vdd vss gf180mcu_fd_sc_mcu7t5v0__antenna
XFILLER_49_542 vdd vss gf180mcu_fd_sc_mcu7t5v0__fill_2
XFILLER_27_1060 vdd vss gf180mcu_fd_sc_mcu7t5v0__fill_2
XFILLER_49_597 vdd vss gf180mcu_fd_sc_mcu7t5v0__fill_2
XANTENNA__2476__A3 _1085_ vdd vss gf180mcu_fd_sc_mcu7t5v0__antenna
XFILLER_36_247 vdd vss gf180mcu_fd_sc_mcu7t5v0__fill_1
XFILLER_33_910 vdd vss gf180mcu_fd_sc_mcu7t5v0__fill_2
XFILLER_17_461 vdd vss gf180mcu_fd_sc_mcu7t5v0__fill_2
XFILLER_36_1329 vdd vss gf180mcu_fd_sc_mcu7t5v0__fill_2
XFILLER_34_1031 vdd vss gf180mcu_fd_sc_mcu7t5v0__fill_1
XFILLER_20_637 vdd vss gf180mcu_fd_sc_mcu7t5v0__fill_2
XANTENNA__3005__CLK clknet_leaf_12_clock vdd vss gf180mcu_fd_sc_mcu7t5v0__antenna
X_2724_ _0968_ _0973_ _0974_ _0237_ vdd vss gf180mcu_fd_sc_mcu7t5v0__nor3_1
X_2655_ u1.ccr1\[18\] _0920_ _0921_ _0922_ _0923_ vdd vss gf180mcu_fd_sc_mcu7t5v0__oai211_1
XANTENNA__3155__CLK clknet_leaf_5_clock vdd vss gf180mcu_fd_sc_mcu7t5v0__antenna
X_1606_ _1223_ _1224_ vdd vss gf180mcu_fd_sc_mcu7t5v0__buf_1
XANTENNA__2164__A2 _0530_ vdd vss gf180mcu_fd_sc_mcu7t5v0__antenna
X_2586_ u0.cmd\[29\] _0864_ _0865_ spi_data_crossing\[29\].data_sync _0867_ vdd vss
+ gf180mcu_fd_sc_mcu7t5v0__aoi22_1
X_1537_ _1157_ u0.latch_cmd vdd vss gf180mcu_fd_sc_mcu7t5v0__clkbuf_1
XFILLER_45_1171 vdd vss gf180mcu_fd_sc_mcu7t5v0__fill_2
X_1468_ _1072_ _1093_ vdd vss gf180mcu_fd_sc_mcu7t5v0__buf_1
X_3207_ _0277_ clknet_leaf_35_clock net159 vdd vss gf180mcu_fd_sc_mcu7t5v0__dffq_1
XFILLER_28_726 vdd vss gf180mcu_fd_sc_mcu7t5v0__fill_2
XFILLER_27_203 vdd vss gf180mcu_fd_sc_mcu7t5v0__fill_2
X_3138_ net41 net230 spi_data_crossing\[10\].A vdd vss gf180mcu_fd_sc_mcu7t5v0__dffq_1
XFILLER_27_236 vdd vss gf180mcu_fd_sc_mcu7t5v0__fill_1
XANTENNA__2683__I _0933_ vdd vss gf180mcu_fd_sc_mcu7t5v0__antenna
XTAP_1107 vdd vss gf180mcu_fd_sc_mcu7t5v0__filltie
X_3069_ _0210_ clknet_leaf_9_clock u1.row_sel\[0\] vdd vss gf180mcu_fd_sc_mcu7t5v0__dffq_1
XFILLER_36_781 vdd vss gf180mcu_fd_sc_mcu7t5v0__fillcap_8
XFILLER_24_910 vdd vss gf180mcu_fd_sc_mcu7t5v0__fill_2
XFILLER_35_291 vdd vss gf180mcu_fd_sc_mcu7t5v0__fill_1
XFILLER_24_954 vdd vss gf180mcu_fd_sc_mcu7t5v0__fillcap_4
XFILLER_23_431 vdd vss gf180mcu_fd_sc_mcu7t5v0__fill_2
XFILLER_13_1104 vdd vss gf180mcu_fd_sc_mcu7t5v0__fillcap_8
XFILLER_17_1273 vdd vss gf180mcu_fd_sc_mcu7t5v0__fill_2
XFILLER_12_54 vdd vss gf180mcu_fd_sc_mcu7t5v0__fillcap_4
XFILLER_2_324 vdd vss gf180mcu_fd_sc_mcu7t5v0__fillcap_8
XFILLER_2_335 vdd vss gf180mcu_fd_sc_mcu7t5v0__fillcap_32
XFILLER_24_1244 vdd vss gf180mcu_fd_sc_mcu7t5v0__fill_2
XFILLER_19_715 vdd vss gf180mcu_fd_sc_mcu7t5v0__fillcap_32
XANTENNA__2794__S _1017_ vdd vss gf180mcu_fd_sc_mcu7t5v0__antenna
XFILLER_46_534 vdd vss gf180mcu_fd_sc_mcu7t5v0__fill_1
XANTENNA__2458__A3 _0774_ vdd vss gf180mcu_fd_sc_mcu7t5v0__antenna
XFILLER_24_1277 vdd vss gf180mcu_fd_sc_mcu7t5v0__fill_2
XFILLER_46_545 vdd vss gf180mcu_fd_sc_mcu7t5v0__fillcap_4
XFILLER_37_73 vdd vss gf180mcu_fd_sc_mcu7t5v0__fillcap_16
XFILLER_18_247 vdd vss gf180mcu_fd_sc_mcu7t5v0__fill_1
XFILLER_37_95 vdd vss gf180mcu_fd_sc_mcu7t5v0__fill_1
XANTENNA__1418__A1 _1040_ vdd vss gf180mcu_fd_sc_mcu7t5v0__antenna
XFILLER_2_1095 vdd vss gf180mcu_fd_sc_mcu7t5v0__fillcap_4
XANTENNA__2091__A1 net220 vdd vss gf180mcu_fd_sc_mcu7t5v0__antenna
XANTENNA__3028__CLK clknet_leaf_24_clock vdd vss gf180mcu_fd_sc_mcu7t5v0__antenna
XANTENNA__1969__A2 _0403_ vdd vss gf180mcu_fd_sc_mcu7t5v0__antenna
XFILLER_41_283 vdd vss gf180mcu_fd_sc_mcu7t5v0__fill_1
XFILLER_41_261 vdd vss gf180mcu_fd_sc_mcu7t5v0__fillcap_8
XFILLER_35_1340 vdd vss gf180mcu_fd_sc_mcu7t5v0__fill_2
XFILLER_30_957 vdd vss gf180mcu_fd_sc_mcu7t5v0__fill_1
XFILLER_35_1362 vdd vss gf180mcu_fd_sc_mcu7t5v0__fill_2
XFILLER_35_1351 vdd vss gf180mcu_fd_sc_mcu7t5v0__fill_1
XANTENNA__1937__I net223 vdd vss gf180mcu_fd_sc_mcu7t5v0__antenna
XFILLER_31_1226 vdd vss gf180mcu_fd_sc_mcu7t5v0__fillcap_16
X_2440_ _0759_ _0168_ vdd vss gf180mcu_fd_sc_mcu7t5v0__clkinv_1
XFILLER_45_5 vdd vss gf180mcu_fd_sc_mcu7t5v0__fill_2
XFILLER_9_1205 vdd vss gf180mcu_fd_sc_mcu7t5v0__fill_2
XFILLER_29_1166 vdd vss gf180mcu_fd_sc_mcu7t5v0__fill_2
X_2371_ _1100_ _0694_ _0699_ vdd vss gf180mcu_fd_sc_mcu7t5v0__xor2_1
XANTENNA__1672__I u1.timer\[7\] vdd vss gf180mcu_fd_sc_mcu7t5v0__antenna
XFILLER_18_792 vdd vss gf180mcu_fd_sc_mcu7t5v0__fill_2
XFILLER_24_239 vdd vss gf180mcu_fd_sc_mcu7t5v0__fill_2
XFILLER_32_250 vdd vss gf180mcu_fd_sc_mcu7t5v0__fill_1
XANTENNA__2621__A3 _0896_ vdd vss gf180mcu_fd_sc_mcu7t5v0__antenna
XFILLER_21_968 vdd vss gf180mcu_fd_sc_mcu7t5v0__fill_1
XFILLER_20_489 vdd vss gf180mcu_fd_sc_mcu7t5v0__fill_1
X_2707_ _1311_ _0961_ _0963_ vdd vss gf180mcu_fd_sc_mcu7t5v0__and2_1
XFILLER_12_1170 vdd vss gf180mcu_fd_sc_mcu7t5v0__fill_1
XANTENNA__2137__A2 _0509_ vdd vss gf180mcu_fd_sc_mcu7t5v0__antenna
X_2638_ u1.ccr1\[11\] _1269_ u1.ccr1\[10\] _1268_ _0906_ vdd vss gf180mcu_fd_sc_mcu7t5v0__oai22_1
XFILLER_12_1192 vdd vss gf180mcu_fd_sc_mcu7t5v0__fillcap_8
X_2569_ _0856_ _0200_ vdd vss gf180mcu_fd_sc_mcu7t5v0__clkinv_1
XFILLER_0_828 vdd vss gf180mcu_fd_sc_mcu7t5v0__fillcap_8
XANTENNA__1582__I u1.ccr1\[6\] vdd vss gf180mcu_fd_sc_mcu7t5v0__antenna
XANTENNA_input36_I la_oenb[6] vdd vss gf180mcu_fd_sc_mcu7t5v0__antenna
XFILLER_28_534 vdd vss gf180mcu_fd_sc_mcu7t5v0__fillcap_4
XANTENNA__1648__A1 _1260_ vdd vss gf180mcu_fd_sc_mcu7t5v0__antenna
XANTENNA__3302__I net168 vdd vss gf180mcu_fd_sc_mcu7t5v0__antenna
XFILLER_28_589 vdd vss gf180mcu_fd_sc_mcu7t5v0__fill_2
XFILLER_15_206 vdd vss gf180mcu_fd_sc_mcu7t5v0__fillcap_4
XFILLER_15_217 vdd vss gf180mcu_fd_sc_mcu7t5v0__fill_1
XFILLER_16_718 vdd vss gf180mcu_fd_sc_mcu7t5v0__fillcap_4
XFILLER_19_1324 vdd vss gf180mcu_fd_sc_mcu7t5v0__fillcap_4
XANTENNA__1820__A1 _1040_ vdd vss gf180mcu_fd_sc_mcu7t5v0__antenna
XFILLER_12_957 vdd vss gf180mcu_fd_sc_mcu7t5v0__fill_1
XFILLER_23_64 vdd vss gf180mcu_fd_sc_mcu7t5v0__fillcap_4
XFILLER_23_294 vdd vss gf180mcu_fd_sc_mcu7t5v0__fill_2
XFILLER_11_489 vdd vss gf180mcu_fd_sc_mcu7t5v0__fillcap_4
XFILLER_2_165 vdd vss gf180mcu_fd_sc_mcu7t5v0__fillcap_4
XFILLER_2_132 vdd vss gf180mcu_fd_sc_mcu7t5v0__fill_2
XFILLER_2_198 vdd vss gf180mcu_fd_sc_mcu7t5v0__fill_2
XFILLER_2_187 vdd vss gf180mcu_fd_sc_mcu7t5v0__fill_1
XFILLER_2_176 vdd vss gf180mcu_fd_sc_mcu7t5v0__fill_1
XANTENNA_clkbuf_leaf_15_clock_I clknet_2_3__leaf_clock vdd vss gf180mcu_fd_sc_mcu7t5v0__antenna
XFILLER_4_1102 vdd vss gf180mcu_fd_sc_mcu7t5v0__fillcap_64
XFILLER_19_501 vdd vss gf180mcu_fd_sc_mcu7t5v0__fill_1
XFILLER_19_523 vdd vss gf180mcu_fd_sc_mcu7t5v0__fill_2
XFILLER_47_854 vdd vss gf180mcu_fd_sc_mcu7t5v0__fill_1
XANTENNA__2300__A2 _0628_ vdd vss gf180mcu_fd_sc_mcu7t5v0__antenna
XANTENNA__2029__S _0443_ vdd vss gf180mcu_fd_sc_mcu7t5v0__antenna
XFILLER_46_386 vdd vss gf180mcu_fd_sc_mcu7t5v0__fill_1
XFILLER_15_740 vdd vss gf180mcu_fd_sc_mcu7t5v0__fillcap_8
XFILLER_21_209 vdd vss gf180mcu_fd_sc_mcu7t5v0__fill_1
XFILLER_42_592 vdd vss gf180mcu_fd_sc_mcu7t5v0__fill_2
XFILLER_42_581 vdd vss gf180mcu_fd_sc_mcu7t5v0__fill_2
XFILLER_14_250 vdd vss gf180mcu_fd_sc_mcu7t5v0__fill_1
X_1940_ _0353_ _0384_ vdd vss gf180mcu_fd_sc_mcu7t5v0__clkbuf_1
X_1871_ net226 _0332_ _0334_ vdd vss gf180mcu_fd_sc_mcu7t5v0__nor2_1
XANTENNA_fanout223_I u0.cmd\[11\] vdd vss gf180mcu_fd_sc_mcu7t5v0__antenna
XFILLER_31_1067 vdd vss gf180mcu_fd_sc_mcu7t5v0__fillcap_4
XFILLER_6_460 vdd vss gf180mcu_fd_sc_mcu7t5v0__fill_1
XANTENNA__2119__A2 _0502_ vdd vss gf180mcu_fd_sc_mcu7t5v0__antenna
XFILLER_43_2 vdd vss gf180mcu_fd_sc_mcu7t5v0__fill_1
X_2423_ _0744_ _0166_ vdd vss gf180mcu_fd_sc_mcu7t5v0__clkinv_1
XANTENNA__1878__A1 u1.col_sel\[3\] vdd vss gf180mcu_fd_sc_mcu7t5v0__antenna
X_2354_ _1103_ _0683_ _0684_ vdd vss gf180mcu_fd_sc_mcu7t5v0__nand2_1
XFILLER_9_1057 vdd vss gf180mcu_fd_sc_mcu7t5v0__fillcap_8
X_2285_ u1.ordering_timer\[3\] _0602_ _0605_ _0623_ _0624_ vdd vss gf180mcu_fd_sc_mcu7t5v0__aoi22_1
XFILLER_38_843 vdd vss gf180mcu_fd_sc_mcu7t5v0__fill_2
XFILLER_37_353 vdd vss gf180mcu_fd_sc_mcu7t5v0__fill_2
XFILLER_25_515 vdd vss gf180mcu_fd_sc_mcu7t5v0__fill_2
XFILLER_44_19 vdd vss gf180mcu_fd_sc_mcu7t5v0__fill_2
XFILLER_33_581 vdd vss gf180mcu_fd_sc_mcu7t5v0__fill_1
XFILLER_33_570 vdd vss gf180mcu_fd_sc_mcu7t5v0__fill_1
XFILLER_20_253 vdd vss gf180mcu_fd_sc_mcu7t5v0__fill_2
XFILLER_20_275 vdd vss gf180mcu_fd_sc_mcu7t5v0__fill_2
XANTENNA__2358__A2 _0687_ vdd vss gf180mcu_fd_sc_mcu7t5v0__antenna
XFILLER_10_1129 vdd vss gf180mcu_fd_sc_mcu7t5v0__fill_1
XFILLER_47_1074 vdd vss gf180mcu_fd_sc_mcu7t5v0__fill_1
XANTENNA__1869__A1 u0.timer_enable vdd vss gf180mcu_fd_sc_mcu7t5v0__antenna
XANTENNA__2201__I _0552_ vdd vss gf180mcu_fd_sc_mcu7t5v0__antenna
XFILLER_0_647 vdd vss gf180mcu_fd_sc_mcu7t5v0__fill_1
XFILLER_29_832 vdd vss gf180mcu_fd_sc_mcu7t5v0__fill_2
XFILLER_29_854 vdd vss gf180mcu_fd_sc_mcu7t5v0__fill_1
XANTENNA__2294__A1 _0613_ vdd vss gf180mcu_fd_sc_mcu7t5v0__antenna
XFILLER_28_353 vdd vss gf180mcu_fd_sc_mcu7t5v0__fill_1
XFILLER_31_518 vdd vss gf180mcu_fd_sc_mcu7t5v0__fill_2
XFILLER_16_559 vdd vss gf180mcu_fd_sc_mcu7t5v0__fill_2
XANTENNA__2597__A2 _0874_ vdd vss gf180mcu_fd_sc_mcu7t5v0__antenna
XANTENNA__1487__I u1.ordering_complete\[8\] vdd vss gf180mcu_fd_sc_mcu7t5v0__antenna
XFILLER_11_231 vdd vss gf180mcu_fd_sc_mcu7t5v0__fillcap_8
XFILLER_12_732 vdd vss gf180mcu_fd_sc_mcu7t5v0__fill_2
XFILLER_15_1007 vdd vss gf180mcu_fd_sc_mcu7t5v0__fillcap_4
XFILLER_8_747 vdd vss gf180mcu_fd_sc_mcu7t5v0__fillcap_64
XFILLER_7_202 vdd vss gf180mcu_fd_sc_mcu7t5v0__fillcap_8
XANTENNA__2860__CLK clknet_leaf_9_clock vdd vss gf180mcu_fd_sc_mcu7t5v0__antenna
XFILLER_32_1365 vdd vss gf180mcu_fd_sc_mcu7t5v0__fill_2
XFILLER_11_286 vdd vss gf180mcu_fd_sc_mcu7t5v0__fill_1
XFILLER_11_297 vdd vss gf180mcu_fd_sc_mcu7t5v0__fill_2
XFILLER_7_279 vdd vss gf180mcu_fd_sc_mcu7t5v0__fillcap_4
XFILLER_4_953 vdd vss gf180mcu_fd_sc_mcu7t5v0__fillcap_4
XFILLER_3_441 vdd vss gf180mcu_fd_sc_mcu7t5v0__fill_1
XTAP_507 vdd vss gf180mcu_fd_sc_mcu7t5v0__filltie
XANTENNA__3216__CLK clknet_leaf_17_clock vdd vss gf180mcu_fd_sc_mcu7t5v0__antenna
XFILLER_3_496 vdd vss gf180mcu_fd_sc_mcu7t5v0__fill_1
XTAP_518 vdd vss gf180mcu_fd_sc_mcu7t5v0__filltie
XTAP_529 vdd vss gf180mcu_fd_sc_mcu7t5v0__filltie
X_2070_ _0455_ _0472_ vdd vss gf180mcu_fd_sc_mcu7t5v0__clkbuf_2
XFILLER_35_824 vdd vss gf180mcu_fd_sc_mcu7t5v0__fillcap_4
XFILLER_19_375 vdd vss gf180mcu_fd_sc_mcu7t5v0__fill_1
XFILLER_46_194 vdd vss gf180mcu_fd_sc_mcu7t5v0__fill_1
XFILLER_34_312 vdd vss gf180mcu_fd_sc_mcu7t5v0__fill_2
XFILLER_35_868 vdd vss gf180mcu_fd_sc_mcu7t5v0__fill_2
X_2972_ _0114_ clknet_leaf_9_clock u1.row_limit\[2\] vdd vss gf180mcu_fd_sc_mcu7t5v0__dffq_1
XFILLER_37_1243 vdd vss gf180mcu_fd_sc_mcu7t5v0__fill_2
XFILLER_37_1232 vdd vss gf180mcu_fd_sc_mcu7t5v0__fill_1
XFILLER_34_389 vdd vss gf180mcu_fd_sc_mcu7t5v0__fill_1
XFILLER_34_378 vdd vss gf180mcu_fd_sc_mcu7t5v0__fillcap_4
XFILLER_15_570 vdd vss gf180mcu_fd_sc_mcu7t5v0__fill_1
XFILLER_33_1118 vdd vss gf180mcu_fd_sc_mcu7t5v0__fill_2
X_1923_ _1329_ _0360_ _0372_ _0038_ vdd vss gf180mcu_fd_sc_mcu7t5v0__oai21_1
XFILLER_37_1287 vdd vss gf180mcu_fd_sc_mcu7t5v0__fill_2
X_1854_ u1.col_sel\[1\] _0317_ vdd vss gf180mcu_fd_sc_mcu7t5v0__clkbuf_1
Xclkbuf_leaf_19_clock clknet_2_3__leaf_clock clknet_leaf_19_clock vdd vss gf180mcu_fd_sc_mcu7t5v0__clkbuf_16
X_1785_ _1212_ _1402_ vdd vss gf180mcu_fd_sc_mcu7t5v0__clkbuf_1
XANTENNA__2060__I1 u1.ordering_complete\[3\] vdd vss gf180mcu_fd_sc_mcu7t5v0__antenna
XFILLER_7_780 vdd vss gf180mcu_fd_sc_mcu7t5v0__fill_1
X_2406_ u1.ordering_complete\[18\] _0714_ _0730_ vdd vss gf180mcu_fd_sc_mcu7t5v0__nor2_1
X_2337_ _0669_ _0155_ vdd vss gf180mcu_fd_sc_mcu7t5v0__clkinv_1
X_2268_ _0608_ _0609_ vdd vss gf180mcu_fd_sc_mcu7t5v0__buf_2
XFILLER_38_662 vdd vss gf180mcu_fd_sc_mcu7t5v0__fill_2
XANTENNA__2276__A1 _1136_ vdd vss gf180mcu_fd_sc_mcu7t5v0__antenna
X_2199_ _0551_ _0135_ vdd vss gf180mcu_fd_sc_mcu7t5v0__clkbuf_1
XFILLER_38_1007 vdd vss gf180mcu_fd_sc_mcu7t5v0__fillcap_16
XFILLER_37_194 vdd vss gf180mcu_fd_sc_mcu7t5v0__fillcap_8
XFILLER_26_879 vdd vss gf180mcu_fd_sc_mcu7t5v0__fill_2
XFILLER_20_1280 vdd vss gf180mcu_fd_sc_mcu7t5v0__fill_2
XFILLER_41_838 vdd vss gf180mcu_fd_sc_mcu7t5v0__fillcap_8
XANTENNA__2883__CLK clknet_leaf_9_clock vdd vss gf180mcu_fd_sc_mcu7t5v0__antenna
XFILLER_21_573 vdd vss gf180mcu_fd_sc_mcu7t5v0__fillcap_16
XANTENNA__3239__CLK clknet_leaf_7_clock vdd vss gf180mcu_fd_sc_mcu7t5v0__antenna
XANTENNA__2200__A1 u0.cmd\[19\] vdd vss gf180mcu_fd_sc_mcu7t5v0__antenna
XANTENNA__3174__D net60 vdd vss gf180mcu_fd_sc_mcu7t5v0__antenna
XFILLER_20_54 vdd vss gf180mcu_fd_sc_mcu7t5v0__fillcap_32
XFILLER_27_1401 vdd vss gf180mcu_fd_sc_mcu7t5v0__fill_1
XFILLER_0_422 vdd vss gf180mcu_fd_sc_mcu7t5v0__fill_2
XFILLER_1_967 vdd vss gf180mcu_fd_sc_mcu7t5v0__fill_1
XFILLER_49_927 vdd vss gf180mcu_fd_sc_mcu7t5v0__fill_2
Xhold41 u1.row_col_select\[2\] net283 vdd vss gf180mcu_fd_sc_mcu7t5v0__dlyd_4
Xhold30 latch_data_sync\[0\] net272 vdd vss gf180mcu_fd_sc_mcu7t5v0__dlyd_4
Xhold52 u1.col_sel\[4\] net294 vdd vss gf180mcu_fd_sc_mcu7t5v0__dlyd_4
XFILLER_25_1191 vdd vss gf180mcu_fd_sc_mcu7t5v0__fill_2
XFILLER_29_695 vdd vss gf180mcu_fd_sc_mcu7t5v0__fill_1
XFILLER_28_172 vdd vss gf180mcu_fd_sc_mcu7t5v0__fill_2
XFILLER_1_1138 vdd vss gf180mcu_fd_sc_mcu7t5v0__fill_1
XFILLER_16_301 vdd vss gf180mcu_fd_sc_mcu7t5v0__fillcap_4
XFILLER_17_824 vdd vss gf180mcu_fd_sc_mcu7t5v0__fillcap_4
XFILLER_44_676 vdd vss gf180mcu_fd_sc_mcu7t5v0__fillcap_16
XFILLER_45_73 vdd vss gf180mcu_fd_sc_mcu7t5v0__fill_1
XFILLER_45_62 vdd vss gf180mcu_fd_sc_mcu7t5v0__fill_2
XFILLER_16_345 vdd vss gf180mcu_fd_sc_mcu7t5v0__fill_2
XFILLER_45_95 vdd vss gf180mcu_fd_sc_mcu7t5v0__fill_2
XANTENNA__1490__A2 _1110_ vdd vss gf180mcu_fd_sc_mcu7t5v0__antenna
XFILLER_16_389 vdd vss gf180mcu_fd_sc_mcu7t5v0__fill_1
XFILLER_12_540 vdd vss gf180mcu_fd_sc_mcu7t5v0__fill_1
XFILLER_40_860 vdd vss gf180mcu_fd_sc_mcu7t5v0__fill_2