* NGSPICE file created from driver_core.ext - technology: gf180mcuC

* Black-box entry subcircuit for gf180mcu_fd_sc_mcu7t5v0__fillcap_16 abstract view
.subckt gf180mcu_fd_sc_mcu7t5v0__fillcap_16 VDD VSS
.ends

* Black-box entry subcircuit for gf180mcu_fd_sc_mcu7t5v0__fillcap_4 abstract view
.subckt gf180mcu_fd_sc_mcu7t5v0__fillcap_4 VDD VSS
.ends

* Black-box entry subcircuit for gf180mcu_fd_sc_mcu7t5v0__antenna abstract view
.subckt gf180mcu_fd_sc_mcu7t5v0__antenna I VDD VSS
.ends

* Black-box entry subcircuit for gf180mcu_fd_sc_mcu7t5v0__fill_1 abstract view
.subckt gf180mcu_fd_sc_mcu7t5v0__fill_1 VDD VSS
.ends

* Black-box entry subcircuit for gf180mcu_fd_sc_mcu7t5v0__clkbuf_1 abstract view
.subckt gf180mcu_fd_sc_mcu7t5v0__clkbuf_1 I Z VDD VSS
.ends

* Black-box entry subcircuit for gf180mcu_fd_sc_mcu7t5v0__xnor2_1 abstract view
.subckt gf180mcu_fd_sc_mcu7t5v0__xnor2_1 A1 A2 ZN VDD VSS
.ends

* Black-box entry subcircuit for gf180mcu_fd_sc_mcu7t5v0__fill_2 abstract view
.subckt gf180mcu_fd_sc_mcu7t5v0__fill_2 VDD VSS
.ends

* Black-box entry subcircuit for gf180mcu_fd_sc_mcu7t5v0__fillcap_8 abstract view
.subckt gf180mcu_fd_sc_mcu7t5v0__fillcap_8 VDD VSS
.ends

* Black-box entry subcircuit for gf180mcu_fd_sc_mcu7t5v0__clkbuf_2 abstract view
.subckt gf180mcu_fd_sc_mcu7t5v0__clkbuf_2 I Z VDD VSS
.ends

* Black-box entry subcircuit for gf180mcu_fd_sc_mcu7t5v0__aoi22_1 abstract view
.subckt gf180mcu_fd_sc_mcu7t5v0__aoi22_1 A1 A2 B1 B2 ZN VDD VSS
.ends

* Black-box entry subcircuit for gf180mcu_fd_sc_mcu7t5v0__mux2_2 abstract view
.subckt gf180mcu_fd_sc_mcu7t5v0__mux2_2 I0 I1 S Z VDD VSS
.ends

* Black-box entry subcircuit for gf180mcu_fd_sc_mcu7t5v0__buf_1 abstract view
.subckt gf180mcu_fd_sc_mcu7t5v0__buf_1 I Z VDD VSS
.ends

* Black-box entry subcircuit for gf180mcu_fd_sc_mcu7t5v0__clkbuf_16 abstract view
.subckt gf180mcu_fd_sc_mcu7t5v0__clkbuf_16 I Z VDD VSS
.ends

* Black-box entry subcircuit for gf180mcu_fd_sc_mcu7t5v0__aoi222_1 abstract view
.subckt gf180mcu_fd_sc_mcu7t5v0__aoi222_1 A1 A2 B1 B2 C1 C2 ZN VDD VSS
.ends

* Black-box entry subcircuit for gf180mcu_fd_sc_mcu7t5v0__aoi21_1 abstract view
.subckt gf180mcu_fd_sc_mcu7t5v0__aoi21_1 A1 A2 B ZN VDD VSS
.ends

* Black-box entry subcircuit for gf180mcu_fd_sc_mcu7t5v0__nor3_2 abstract view
.subckt gf180mcu_fd_sc_mcu7t5v0__nor3_2 A1 A2 A3 ZN VDD VSS
.ends

* Black-box entry subcircuit for gf180mcu_fd_sc_mcu7t5v0__filltie abstract view
.subckt gf180mcu_fd_sc_mcu7t5v0__filltie VDD VSS
.ends

* Black-box entry subcircuit for gf180mcu_fd_sc_mcu7t5v0__buf_2 abstract view
.subckt gf180mcu_fd_sc_mcu7t5v0__buf_2 I Z VDD VSS
.ends

* Black-box entry subcircuit for gf180mcu_fd_sc_mcu7t5v0__dffq_1 abstract view
.subckt gf180mcu_fd_sc_mcu7t5v0__dffq_1 D CLK Q VDD VSS
.ends

* Black-box entry subcircuit for gf180mcu_fd_sc_mcu7t5v0__fillcap_64 abstract view
.subckt gf180mcu_fd_sc_mcu7t5v0__fillcap_64 VDD VSS
.ends

* Black-box entry subcircuit for gf180mcu_fd_sc_mcu7t5v0__nand2_1 abstract view
.subckt gf180mcu_fd_sc_mcu7t5v0__nand2_1 A1 A2 ZN VDD VSS
.ends

* Black-box entry subcircuit for gf180mcu_fd_sc_mcu7t5v0__fillcap_32 abstract view
.subckt gf180mcu_fd_sc_mcu7t5v0__fillcap_32 VDD VSS
.ends

* Black-box entry subcircuit for gf180mcu_fd_sc_mcu7t5v0__nor4_1 abstract view
.subckt gf180mcu_fd_sc_mcu7t5v0__nor4_1 A1 A2 A3 A4 ZN VDD VSS
.ends

* Black-box entry subcircuit for gf180mcu_fd_sc_mcu7t5v0__or2_1 abstract view
.subckt gf180mcu_fd_sc_mcu7t5v0__or2_1 A1 A2 Z VDD VSS
.ends

* Black-box entry subcircuit for gf180mcu_fd_sc_mcu7t5v0__nor2_1 abstract view
.subckt gf180mcu_fd_sc_mcu7t5v0__nor2_1 A1 A2 ZN VDD VSS
.ends

* Black-box entry subcircuit for gf180mcu_fd_sc_mcu7t5v0__nor4_2 abstract view
.subckt gf180mcu_fd_sc_mcu7t5v0__nor4_2 A1 A2 A3 A4 ZN VDD VSS
.ends

* Black-box entry subcircuit for gf180mcu_fd_sc_mcu7t5v0__nand4_1 abstract view
.subckt gf180mcu_fd_sc_mcu7t5v0__nand4_1 A1 A2 A3 A4 ZN VDD VSS
.ends

* Black-box entry subcircuit for gf180mcu_fd_sc_mcu7t5v0__and2_1 abstract view
.subckt gf180mcu_fd_sc_mcu7t5v0__and2_1 A1 A2 Z VDD VSS
.ends

* Black-box entry subcircuit for gf180mcu_fd_sc_mcu7t5v0__aoi221_2 abstract view
.subckt gf180mcu_fd_sc_mcu7t5v0__aoi221_2 A1 A2 B1 B2 C ZN VDD VSS
.ends

* Black-box entry subcircuit for gf180mcu_fd_sc_mcu7t5v0__nand2_2 abstract view
.subckt gf180mcu_fd_sc_mcu7t5v0__nand2_2 A1 A2 ZN VDD VSS
.ends

* Black-box entry subcircuit for gf180mcu_fd_sc_mcu7t5v0__nor4_4 abstract view
.subckt gf180mcu_fd_sc_mcu7t5v0__nor4_4 A1 A2 A3 A4 ZN VDD VSS
.ends

* Black-box entry subcircuit for gf180mcu_fd_sc_mcu7t5v0__clkinv_1 abstract view
.subckt gf180mcu_fd_sc_mcu7t5v0__clkinv_1 I ZN VDD VSS
.ends

* Black-box entry subcircuit for gf180mcu_fd_sc_mcu7t5v0__endcap abstract view
.subckt gf180mcu_fd_sc_mcu7t5v0__endcap VDD VSS
.ends

* Black-box entry subcircuit for gf180mcu_fd_sc_mcu7t5v0__nand3_1 abstract view
.subckt gf180mcu_fd_sc_mcu7t5v0__nand3_1 A1 A2 A3 ZN VDD VSS
.ends

* Black-box entry subcircuit for gf180mcu_fd_sc_mcu7t5v0__oai22_1 abstract view
.subckt gf180mcu_fd_sc_mcu7t5v0__oai22_1 A1 A2 B1 B2 ZN VDD VSS
.ends

* Black-box entry subcircuit for gf180mcu_fd_sc_mcu7t5v0__nand3_4 abstract view
.subckt gf180mcu_fd_sc_mcu7t5v0__nand3_4 A1 A2 A3 ZN VDD VSS
.ends

* Black-box entry subcircuit for gf180mcu_fd_sc_mcu7t5v0__clkbuf_8 abstract view
.subckt gf180mcu_fd_sc_mcu7t5v0__clkbuf_8 I Z VDD VSS
.ends

* Black-box entry subcircuit for gf180mcu_fd_sc_mcu7t5v0__oai31_1 abstract view
.subckt gf180mcu_fd_sc_mcu7t5v0__oai31_1 A1 A2 A3 B ZN VDD VSS
.ends

* Black-box entry subcircuit for gf180mcu_fd_sc_mcu7t5v0__and4_1 abstract view
.subckt gf180mcu_fd_sc_mcu7t5v0__and4_1 A1 A2 A3 A4 Z VDD VSS
.ends

* Black-box entry subcircuit for gf180mcu_fd_sc_mcu7t5v0__aoi211_4 abstract view
.subckt gf180mcu_fd_sc_mcu7t5v0__aoi211_4 A1 A2 B C ZN VDD VSS
.ends

* Black-box entry subcircuit for gf180mcu_fd_sc_mcu7t5v0__aoi211_2 abstract view
.subckt gf180mcu_fd_sc_mcu7t5v0__aoi211_2 A1 A2 B C ZN VDD VSS
.ends

* Black-box entry subcircuit for gf180mcu_fd_sc_mcu7t5v0__aoi221_1 abstract view
.subckt gf180mcu_fd_sc_mcu7t5v0__aoi221_1 A1 A2 B1 B2 C ZN VDD VSS
.ends

* Black-box entry subcircuit for gf180mcu_fd_sc_mcu7t5v0__clkbuf_3 abstract view
.subckt gf180mcu_fd_sc_mcu7t5v0__clkbuf_3 I Z VDD VSS
.ends

* Black-box entry subcircuit for gf180mcu_fd_sc_mcu7t5v0__buf_3 abstract view
.subckt gf180mcu_fd_sc_mcu7t5v0__buf_3 I Z VDD VSS
.ends

* Black-box entry subcircuit for gf180mcu_fd_sc_mcu7t5v0__nand3_2 abstract view
.subckt gf180mcu_fd_sc_mcu7t5v0__nand3_2 A1 A2 A3 ZN VDD VSS
.ends

* Black-box entry subcircuit for gf180mcu_fd_sc_mcu7t5v0__nor2_2 abstract view
.subckt gf180mcu_fd_sc_mcu7t5v0__nor2_2 A1 A2 ZN VDD VSS
.ends

* Black-box entry subcircuit for gf180mcu_fd_sc_mcu7t5v0__xor2_1 abstract view
.subckt gf180mcu_fd_sc_mcu7t5v0__xor2_1 A1 A2 Z VDD VSS
.ends

* Black-box entry subcircuit for gf180mcu_fd_sc_mcu7t5v0__aoi211_1 abstract view
.subckt gf180mcu_fd_sc_mcu7t5v0__aoi211_1 A1 A2 B C ZN VDD VSS
.ends

* Black-box entry subcircuit for gf180mcu_fd_sc_mcu7t5v0__and2_2 abstract view
.subckt gf180mcu_fd_sc_mcu7t5v0__and2_2 A1 A2 Z VDD VSS
.ends

* Black-box entry subcircuit for gf180mcu_fd_sc_mcu7t5v0__inv_1 abstract view
.subckt gf180mcu_fd_sc_mcu7t5v0__inv_1 I ZN VDD VSS
.ends

* Black-box entry subcircuit for gf180mcu_fd_sc_mcu7t5v0__dffq_2 abstract view
.subckt gf180mcu_fd_sc_mcu7t5v0__dffq_2 D CLK Q VDD VSS
.ends

* Black-box entry subcircuit for gf180mcu_fd_sc_mcu7t5v0__nor3_1 abstract view
.subckt gf180mcu_fd_sc_mcu7t5v0__nor3_1 A1 A2 A3 ZN VDD VSS
.ends

* Black-box entry subcircuit for gf180mcu_fd_sc_mcu7t5v0__nand4_4 abstract view
.subckt gf180mcu_fd_sc_mcu7t5v0__nand4_4 A1 A2 A3 A4 ZN VDD VSS
.ends

* Black-box entry subcircuit for gf180mcu_fd_sc_mcu7t5v0__and3_1 abstract view
.subckt gf180mcu_fd_sc_mcu7t5v0__and3_1 A1 A2 A3 Z VDD VSS
.ends

* Black-box entry subcircuit for gf180mcu_fd_sc_mcu7t5v0__aoi222_2 abstract view
.subckt gf180mcu_fd_sc_mcu7t5v0__aoi222_2 A1 A2 B1 B2 C1 C2 ZN VDD VSS
.ends

* Black-box entry subcircuit for gf180mcu_fd_sc_mcu7t5v0__nor2_4 abstract view
.subckt gf180mcu_fd_sc_mcu7t5v0__nor2_4 A1 A2 ZN VDD VSS
.ends

* Black-box entry subcircuit for gf180mcu_fd_sc_mcu7t5v0__dlyb_1 abstract view
.subckt gf180mcu_fd_sc_mcu7t5v0__dlyb_1 I Z VDD VSS
.ends

* Black-box entry subcircuit for gf180mcu_fd_sc_mcu7t5v0__oai21_1 abstract view
.subckt gf180mcu_fd_sc_mcu7t5v0__oai21_1 A1 A2 B ZN VDD VSS
.ends

* Black-box entry subcircuit for gf180mcu_fd_sc_mcu7t5v0__clkbuf_4 abstract view
.subckt gf180mcu_fd_sc_mcu7t5v0__clkbuf_4 I Z VDD VSS
.ends

* Black-box entry subcircuit for gf180mcu_fd_sc_mcu7t5v0__oai21_2 abstract view
.subckt gf180mcu_fd_sc_mcu7t5v0__oai21_2 A1 A2 B ZN VDD VSS
.ends

* Black-box entry subcircuit for gf180mcu_fd_sc_mcu7t5v0__dlyd_4 abstract view
.subckt gf180mcu_fd_sc_mcu7t5v0__dlyd_4 I Z VDD VSS
.ends

* Black-box entry subcircuit for gf180mcu_fd_sc_mcu7t5v0__clkinv_2 abstract view
.subckt gf180mcu_fd_sc_mcu7t5v0__clkinv_2 I ZN VDD VSS
.ends

* Black-box entry subcircuit for gf180mcu_fd_sc_mcu7t5v0__oai31_2 abstract view
.subckt gf180mcu_fd_sc_mcu7t5v0__oai31_2 A1 A2 A3 B ZN VDD VSS
.ends

* Black-box entry subcircuit for gf180mcu_fd_sc_mcu7t5v0__xor2_2 abstract view
.subckt gf180mcu_fd_sc_mcu7t5v0__xor2_2 A1 A2 Z VDD VSS
.ends

.subckt driver_core clock clock_a col_select_a[0] col_select_a[1] col_select_a[2]
+ col_select_a[3] col_select_a[4] col_select_a[5] data_in_a[0] data_in_a[10] data_in_a[11]
+ data_in_a[12] data_in_a[13] data_in_a[14] data_in_a[15] data_in_a[1] data_in_a[2]
+ data_in_a[3] data_in_a[4] data_in_a[5] data_in_a[6] data_in_a[7] data_in_a[8] data_in_a[9]
+ driver_io[0] driver_io[1] inverter_select_a mem_address_a[0] mem_address_a[1] mem_address_a[2]
+ mem_address_a[3] mem_address_a[4] mem_address_a[5] mem_address_a[6] mem_address_a[7]
+ mem_address_a[8] mem_address_a[9] mem_write_n_a output_active_a row_col_select_a
+ row_select_a[0] row_select_a[1] row_select_a[2] row_select_a[3] row_select_a[4]
+ row_select_a[5] vdd vss
XFILLER_132_1322 vdd vss gf180mcu_fd_sc_mcu7t5v0__fillcap_16
XFILLER_79_380 vdd vss gf180mcu_fd_sc_mcu7t5v0__fillcap_4
XANTENNA__07383__I _02618_ vdd vss gf180mcu_fd_sc_mcu7t5v0__antenna
XFILLER_95_851 vdd vss gf180mcu_fd_sc_mcu7t5v0__fill_1
XANTENNA__11705__I1 u2.mem\[181\]\[2\] vdd vss gf180mcu_fd_sc_mcu7t5v0__antenna
X_09671_ _04550_ _00582_ vdd vss gf180mcu_fd_sc_mcu7t5v0__clkbuf_1
X_06883_ _02338_ _02345_ _02362_ vdd vss gf180mcu_fd_sc_mcu7t5v0__xnor2_1
XANTENNA__06337__A2 _01834_ vdd vss gf180mcu_fd_sc_mcu7t5v0__antenna
XFILLER_55_704 vdd vss gf180mcu_fd_sc_mcu7t5v0__fill_2
XANTENNA__08582__I0 _03807_ vdd vss gf180mcu_fd_sc_mcu7t5v0__antenna
XANTENNA__12595__CLK clknet_leaf_112_clock vdd vss gf180mcu_fd_sc_mcu7t5v0__antenna
XFILLER_27_417 vdd vss gf180mcu_fd_sc_mcu7t5v0__fill_2
XFILLER_54_203 vdd vss gf180mcu_fd_sc_mcu7t5v0__fill_1
X_08622_ _03885_ _00198_ vdd vss gf180mcu_fd_sc_mcu7t5v0__clkbuf_1
XFILLER_27_428 vdd vss gf180mcu_fd_sc_mcu7t5v0__fill_1
XFILLER_54_214 vdd vss gf180mcu_fd_sc_mcu7t5v0__fill_2
XFILLER_82_534 vdd vss gf180mcu_fd_sc_mcu7t5v0__fillcap_8
XANTENNA__09304__S _04323_ vdd vss gf180mcu_fd_sc_mcu7t5v0__antenna
XFILLER_82_567 vdd vss gf180mcu_fd_sc_mcu7t5v0__fill_2
XFILLER_70_707 vdd vss gf180mcu_fd_sc_mcu7t5v0__fill_2
X_08553_ _03834_ _03845_ vdd vss gf180mcu_fd_sc_mcu7t5v0__clkbuf_2
XFILLER_78_1150 vdd vss gf180mcu_fd_sc_mcu7t5v0__fillcap_8
XFILLER_39_1101 vdd vss gf180mcu_fd_sc_mcu7t5v0__fill_2
XFILLER_35_450 vdd vss gf180mcu_fd_sc_mcu7t5v0__fill_1
XFILLER_23_601 vdd vss gf180mcu_fd_sc_mcu7t5v0__fill_2
XFILLER_35_461 vdd vss gf180mcu_fd_sc_mcu7t5v0__fill_1
XFILLER_36_995 vdd vss gf180mcu_fd_sc_mcu7t5v0__fill_2
XANTENNA__07298__B1 _02591_ vdd vss gf180mcu_fd_sc_mcu7t5v0__antenna
X_07504_ u2.mem\[40\]\[7\] _02789_ _02790_ u2.mem\[30\]\[7\] _02976_ vdd vss gf180mcu_fd_sc_mcu7t5v0__aoi22_1
XFILLER_35_472 vdd vss gf180mcu_fd_sc_mcu7t5v0__fill_2
XFILLER_74_1025 vdd vss gf180mcu_fd_sc_mcu7t5v0__fillcap_4
X_08484_ _03797_ u2.mem\[9\]\[0\] _03799_ _03800_ vdd vss gf180mcu_fd_sc_mcu7t5v0__mux2_2
XFILLER_1_1490 vdd vss gf180mcu_fd_sc_mcu7t5v0__fill_1
XFILLER_23_645 vdd vss gf180mcu_fd_sc_mcu7t5v0__fill_2
XFILLER_74_1047 vdd vss gf180mcu_fd_sc_mcu7t5v0__fillcap_8
X_07435_ _02568_ _02909_ vdd vss gf180mcu_fd_sc_mcu7t5v0__buf_1
XANTENNA__10841__A1 _03982_ vdd vss gf180mcu_fd_sc_mcu7t5v0__antenna
XANTENNA__07301__A4 _02776_ vdd vss gf180mcu_fd_sc_mcu7t5v0__antenna
XANTENNA__10249__I _04604_ vdd vss gf180mcu_fd_sc_mcu7t5v0__antenna
XFILLER_91_1361 vdd vss gf180mcu_fd_sc_mcu7t5v0__fill_1
XFILLER_23_689 vdd vss gf180mcu_fd_sc_mcu7t5v0__fill_1
XFILLER_52_1312 vdd vss gf180mcu_fd_sc_mcu7t5v0__fill_1
XFILLER_167_138 vdd vss gf180mcu_fd_sc_mcu7t5v0__fillcap_4
XFILLER_108_1560 vdd vss gf180mcu_fd_sc_mcu7t5v0__fillcap_16
X_07366_ _02579_ _02841_ vdd vss gf180mcu_fd_sc_mcu7t5v0__clkbuf_1
XFILLER_148_330 vdd vss gf180mcu_fd_sc_mcu7t5v0__fill_1
XFILLER_10_328 vdd vss gf180mcu_fd_sc_mcu7t5v0__fill_2
Xclkbuf_leaf_350_clock clknet_5_4_0_clock clknet_leaf_350_clock vdd vss gf180mcu_fd_sc_mcu7t5v0__clkbuf_16
XFILLER_52_1356 vdd vss gf180mcu_fd_sc_mcu7t5v0__fill_2
XFILLER_17_1487 vdd vss gf180mcu_fd_sc_mcu7t5v0__fill_1
X_09105_ _04199_ _00367_ vdd vss gf180mcu_fd_sc_mcu7t5v0__clkbuf_1
X_06317_ u2.mem\[158\]\[3\] _01728_ _01729_ u2.mem\[151\]\[3\] _01731_ u2.mem\[193\]\[3\]
+ _01821_ vdd vss gf180mcu_fd_sc_mcu7t5v0__aoi222_1
XFILLER_163_300 vdd vss gf180mcu_fd_sc_mcu7t5v0__fillcap_4
XFILLER_104_1457 vdd vss gf180mcu_fd_sc_mcu7t5v0__fill_1
X_07297_ u2.mem\[23\]\[3\] _02682_ _02683_ u2.mem\[22\]\[3\] _02773_ vdd vss gf180mcu_fd_sc_mcu7t5v0__aoi22_1
XFILLER_136_525 vdd vss gf180mcu_fd_sc_mcu7t5v0__fillcap_4
XFILLER_87_1419 vdd vss gf180mcu_fd_sc_mcu7t5v0__fill_1
XFILLER_163_333 vdd vss gf180mcu_fd_sc_mcu7t5v0__fillcap_4
X_09036_ _04152_ _00345_ vdd vss gf180mcu_fd_sc_mcu7t5v0__clkbuf_1
XANTENNA__07470__B1 _02884_ vdd vss gf180mcu_fd_sc_mcu7t5v0__antenna
X_06248_ u2.mem\[184\]\[1\] _01626_ _01753_ _01754_ vdd vss gf180mcu_fd_sc_mcu7t5v0__aoi21_1
XANTENNA__06462__I _01914_ vdd vss gf180mcu_fd_sc_mcu7t5v0__antenna
XFILLER_164_889 vdd vss gf180mcu_fd_sc_mcu7t5v0__fillcap_8
XFILLER_102_1170 vdd vss gf180mcu_fd_sc_mcu7t5v0__fill_1
XFILLER_85_1110 vdd vss gf180mcu_fd_sc_mcu7t5v0__fillcap_16
XFILLER_11_1064 vdd vss gf180mcu_fd_sc_mcu7t5v0__fill_1
XFILLER_117_783 vdd vss gf180mcu_fd_sc_mcu7t5v0__fill_1
Xclkbuf_leaf_365_clock clknet_5_4_0_clock clknet_leaf_365_clock vdd vss gf180mcu_fd_sc_mcu7t5v0__clkbuf_16
X_06179_ _01563_ _01677_ _01587_ _01686_ vdd vss gf180mcu_fd_sc_mcu7t5v0__nor3_2
XFILLER_172_1102 vdd vss gf180mcu_fd_sc_mcu7t5v0__fill_1
XFILLER_105_945 vdd vss gf180mcu_fd_sc_mcu7t5v0__fill_2
XFILLER_11_1097 vdd vss gf180mcu_fd_sc_mcu7t5v0__fill_1
XFILLER_132_742 vdd vss gf180mcu_fd_sc_mcu7t5v0__fill_2
XANTENNA__06025__A1 _01516_ vdd vss gf180mcu_fd_sc_mcu7t5v0__antenna
XANTENNA__07222__B1 _02634_ vdd vss gf180mcu_fd_sc_mcu7t5v0__antenna
XFILLER_172_1135 vdd vss gf180mcu_fd_sc_mcu7t5v0__fill_1
XFILLER_104_455 vdd vss gf180mcu_fd_sc_mcu7t5v0__fill_2
XFILLER_89_144 vdd vss gf180mcu_fd_sc_mcu7t5v0__fill_1
XFILLER_78_818 vdd vss gf180mcu_fd_sc_mcu7t5v0__fillcap_16
XANTENNA__13370__CLK clknet_leaf_375_clock vdd vss gf180mcu_fd_sc_mcu7t5v0__antenna
XFILLER_85_1198 vdd vss gf180mcu_fd_sc_mcu7t5v0__fill_2
XANTENNA__06576__A2 _02060_ vdd vss gf180mcu_fd_sc_mcu7t5v0__antenna
XFILLER_137_1277 vdd vss gf180mcu_fd_sc_mcu7t5v0__fill_1
XFILLER_63_1441 vdd vss gf180mcu_fd_sc_mcu7t5v0__fillcap_4
XANTENNA__10712__I _05195_ vdd vss gf180mcu_fd_sc_mcu7t5v0__antenna
X_09938_ _04689_ u2.mem\[42\]\[3\] _04719_ _04723_ vdd vss gf180mcu_fd_sc_mcu7t5v0__mux2_2
XFILLER_120_948 vdd vss gf180mcu_fd_sc_mcu7t5v0__fill_2
XANTENNA__12938__CLK clknet_leaf_148_clock vdd vss gf180mcu_fd_sc_mcu7t5v0__antenna
XFILLER_104_499 vdd vss gf180mcu_fd_sc_mcu7t5v0__fill_2
XFILLER_89_188 vdd vss gf180mcu_fd_sc_mcu7t5v0__fill_2
XFILLER_154_1580 vdd vss gf180mcu_fd_sc_mcu7t5v0__fill_1
XFILLER_133_10 vdd vss gf180mcu_fd_sc_mcu7t5v0__fillcap_4
XFILLER_58_531 vdd vss gf180mcu_fd_sc_mcu7t5v0__fill_1
XFILLER_58_542 vdd vss gf180mcu_fd_sc_mcu7t5v0__fill_2
XFILLER_115_1564 vdd vss gf180mcu_fd_sc_mcu7t5v0__fill_1
X_09869_ _04605_ u2.mem\[40\]\[12\] _04676_ _04677_ vdd vss gf180mcu_fd_sc_mcu7t5v0__mux2_2
XTAP_3202 vdd vss gf180mcu_fd_sc_mcu7t5v0__filltie
XFILLER_86_884 vdd vss gf180mcu_fd_sc_mcu7t5v0__fill_2
XANTENNA__06328__A2 _01712_ vdd vss gf180mcu_fd_sc_mcu7t5v0__antenna
XANTENNA__08573__I0 _03797_ vdd vss gf180mcu_fd_sc_mcu7t5v0__antenna
XTAP_3213 vdd vss gf180mcu_fd_sc_mcu7t5v0__filltie
XFILLER_100_672 vdd vss gf180mcu_fd_sc_mcu7t5v0__fill_2
XTAP_3224 vdd vss gf180mcu_fd_sc_mcu7t5v0__filltie
XFILLER_111_1439 vdd vss gf180mcu_fd_sc_mcu7t5v0__fill_2
XFILLER_45_203 vdd vss gf180mcu_fd_sc_mcu7t5v0__fillcap_8
X_11900_ _05927_ _05942_ vdd vss gf180mcu_fd_sc_mcu7t5v0__buf_2
XFILLER_133_87 vdd vss gf180mcu_fd_sc_mcu7t5v0__fill_2
XTAP_3235 vdd vss gf180mcu_fd_sc_mcu7t5v0__filltie
XTAP_2501 vdd vss gf180mcu_fd_sc_mcu7t5v0__filltie
X_12880_ _00759_ clknet_5_24_0_clock u2.mem\[47\]\[5\] vdd vss gf180mcu_fd_sc_mcu7t5v0__dffq_1
XTAP_3246 vdd vss gf180mcu_fd_sc_mcu7t5v0__filltie
XTAP_3257 vdd vss gf180mcu_fd_sc_mcu7t5v0__filltie
XTAP_2512 vdd vss gf180mcu_fd_sc_mcu7t5v0__filltie
XTAP_3268 vdd vss gf180mcu_fd_sc_mcu7t5v0__filltie
XTAP_2523 vdd vss gf180mcu_fd_sc_mcu7t5v0__filltie
XFILLER_26_30 vdd vss gf180mcu_fd_sc_mcu7t5v0__fillcap_4
XTAP_3279 vdd vss gf180mcu_fd_sc_mcu7t5v0__filltie
XTAP_2534 vdd vss gf180mcu_fd_sc_mcu7t5v0__filltie
Xclkbuf_leaf_303_clock clknet_5_20_0_clock clknet_leaf_303_clock vdd vss gf180mcu_fd_sc_mcu7t5v0__clkbuf_16
X_11831_ _05870_ u2.mem\[189\]\[2\] _05896_ _05899_ vdd vss gf180mcu_fd_sc_mcu7t5v0__mux2_2
XFILLER_73_567 vdd vss gf180mcu_fd_sc_mcu7t5v0__fill_1
XTAP_2545 vdd vss gf180mcu_fd_sc_mcu7t5v0__filltie
XFILLER_57_1201 vdd vss gf180mcu_fd_sc_mcu7t5v0__fill_2
XTAP_1800 vdd vss gf180mcu_fd_sc_mcu7t5v0__filltie
XFILLER_165_2 vdd vss gf180mcu_fd_sc_mcu7t5v0__fillcap_64
XTAP_2556 vdd vss gf180mcu_fd_sc_mcu7t5v0__filltie
XTAP_1811 vdd vss gf180mcu_fd_sc_mcu7t5v0__filltie
XTAP_1822 vdd vss gf180mcu_fd_sc_mcu7t5v0__filltie
XTAP_2567 vdd vss gf180mcu_fd_sc_mcu7t5v0__filltie
XTAP_2578 vdd vss gf180mcu_fd_sc_mcu7t5v0__filltie
XTAP_1833 vdd vss gf180mcu_fd_sc_mcu7t5v0__filltie
XANTENNA__07289__B1 _02539_ vdd vss gf180mcu_fd_sc_mcu7t5v0__antenna
XTAP_2589 vdd vss gf180mcu_fd_sc_mcu7t5v0__filltie
X_11762_ _04248_ _05847_ _05856_ vdd vss gf180mcu_fd_sc_mcu7t5v0__nand2_1
XTAP_1844 vdd vss gf180mcu_fd_sc_mcu7t5v0__filltie
XFILLER_159_606 vdd vss gf180mcu_fd_sc_mcu7t5v0__fill_2
XFILLER_18_1207 vdd vss gf180mcu_fd_sc_mcu7t5v0__fill_1
XTAP_1855 vdd vss gf180mcu_fd_sc_mcu7t5v0__filltie
XANTENNA__09013__I data_in_trans\[3\].data_sync vdd vss gf180mcu_fd_sc_mcu7t5v0__antenna
XTAP_1866 vdd vss gf180mcu_fd_sc_mcu7t5v0__filltie
XFILLER_144_1226 vdd vss gf180mcu_fd_sc_mcu7t5v0__fill_1
X_13501_ _01380_ clknet_leaf_354_clock u2.mem\[187\]\[0\] vdd vss gf180mcu_fd_sc_mcu7t5v0__dffq_1
XFILLER_158_105 vdd vss gf180mcu_fd_sc_mcu7t5v0__fill_1
XFILLER_13_144 vdd vss gf180mcu_fd_sc_mcu7t5v0__fillcap_32
X_10713_ _05194_ u2.mem\[61\]\[0\] _05196_ _05197_ vdd vss gf180mcu_fd_sc_mcu7t5v0__mux2_2
XTAP_1877 vdd vss gf180mcu_fd_sc_mcu7t5v0__filltie
XANTENNA__12318__CLK clknet_leaf_185_clock vdd vss gf180mcu_fd_sc_mcu7t5v0__antenna
XANTENNA__11880__I0 u2.mem\[192\]\[1\] vdd vss gf180mcu_fd_sc_mcu7t5v0__antenna
XTAP_1888 vdd vss gf180mcu_fd_sc_mcu7t5v0__filltie
X_11693_ _05794_ u2.mem\[180\]\[3\] _05810_ _05814_ vdd vss gf180mcu_fd_sc_mcu7t5v0__mux2_2
XTAP_1899 vdd vss gf180mcu_fd_sc_mcu7t5v0__filltie
XFILLER_158_138 vdd vss gf180mcu_fd_sc_mcu7t5v0__fill_2
XFILLER_122_1502 vdd vss gf180mcu_fd_sc_mcu7t5v0__fill_2
Xclkbuf_leaf_318_clock clknet_5_17_0_clock clknet_leaf_318_clock vdd vss gf180mcu_fd_sc_mcu7t5v0__clkbuf_16
XFILLER_13_188 vdd vss gf180mcu_fd_sc_mcu7t5v0__fill_1
XFILLER_42_40 vdd vss gf180mcu_fd_sc_mcu7t5v0__fillcap_8
X_13432_ _01311_ clknet_leaf_350_clock u2.mem\[175\]\[3\] vdd vss gf180mcu_fd_sc_mcu7t5v0__dffq_1
XANTENNA__08852__I _03691_ vdd vss gf180mcu_fd_sc_mcu7t5v0__antenna
X_10644_ _05156_ _00949_ vdd vss gf180mcu_fd_sc_mcu7t5v0__clkbuf_1
XFILLER_107_1070 vdd vss gf180mcu_fd_sc_mcu7t5v0__fillcap_8
XFILLER_158_40 vdd vss gf180mcu_fd_sc_mcu7t5v0__fill_2
XFILLER_9_159 vdd vss gf180mcu_fd_sc_mcu7t5v0__fill_2
XFILLER_31_1418 vdd vss gf180mcu_fd_sc_mcu7t5v0__fill_2
XFILLER_70_1467 vdd vss gf180mcu_fd_sc_mcu7t5v0__fill_2
XFILLER_122_1535 vdd vss gf180mcu_fd_sc_mcu7t5v0__fill_2
XFILLER_42_84 vdd vss gf180mcu_fd_sc_mcu7t5v0__fill_2
XFILLER_167_683 vdd vss gf180mcu_fd_sc_mcu7t5v0__fillcap_16
XANTENNA__11632__I0 _05756_ vdd vss gf180mcu_fd_sc_mcu7t5v0__antenna
X_13363_ _01242_ clknet_leaf_374_clock u2.mem\[164\]\[0\] vdd vss gf180mcu_fd_sc_mcu7t5v0__dffq_1
X_10575_ _05114_ _00922_ vdd vss gf180mcu_fd_sc_mcu7t5v0__clkbuf_1
XANTENNA__07056__A3 _02503_ vdd vss gf180mcu_fd_sc_mcu7t5v0__antenna
XFILLER_10_873 vdd vss gf180mcu_fd_sc_mcu7t5v0__fill_2
XFILLER_158_84 vdd vss gf180mcu_fd_sc_mcu7t5v0__fill_2
XFILLER_122_1579 vdd vss gf180mcu_fd_sc_mcu7t5v0__fill_2
XFILLER_158_95 vdd vss gf180mcu_fd_sc_mcu7t5v0__fill_2
X_12314_ _00193_ clknet_leaf_116_clock u2.mem\[11\]\[15\] vdd vss gf180mcu_fd_sc_mcu7t5v0__dffq_1
X_13294_ _01173_ clknet_leaf_383_clock u2.mem\[152\]\[3\] vdd vss gf180mcu_fd_sc_mcu7t5v0__dffq_1
XFILLER_154_366 vdd vss gf180mcu_fd_sc_mcu7t5v0__fill_2
XFILLER_5_354 vdd vss gf180mcu_fd_sc_mcu7t5v0__fill_1
XFILLER_68_1330 vdd vss gf180mcu_fd_sc_mcu7t5v0__fill_2
XFILLER_120_1281 vdd vss gf180mcu_fd_sc_mcu7t5v0__fill_2
XFILLER_142_528 vdd vss gf180mcu_fd_sc_mcu7t5v0__fillcap_4
XANTENNA__11919__S _05950_ vdd vss gf180mcu_fd_sc_mcu7t5v0__antenna
X_12245_ _00124_ clknet_leaf_74_clock u2.mem\[7\]\[10\] vdd vss gf180mcu_fd_sc_mcu7t5v0__dffq_1
XANTENNA__08005__A2 _03464_ vdd vss gf180mcu_fd_sc_mcu7t5v0__antenna
XFILLER_29_1314 vdd vss gf180mcu_fd_sc_mcu7t5v0__fillcap_8
XFILLER_123_742 vdd vss gf180mcu_fd_sc_mcu7t5v0__fill_2
XFILLER_64_1216 vdd vss gf180mcu_fd_sc_mcu7t5v0__fill_2
XANTENNA__07213__B1 _02690_ vdd vss gf180mcu_fd_sc_mcu7t5v0__antenna
XANTENNA__11935__I1 u2.mem\[193\]\[9\] vdd vss gf180mcu_fd_sc_mcu7t5v0__antenna
XFILLER_69_807 vdd vss gf180mcu_fd_sc_mcu7t5v0__fillcap_8
XFILLER_174_72 vdd vss gf180mcu_fd_sc_mcu7t5v0__fillcap_32
X_12176_ _00055_ clknet_leaf_233_clock u2.mem\[3\]\[5\] vdd vss gf180mcu_fd_sc_mcu7t5v0__dffq_1
XFILLER_9_1419 vdd vss gf180mcu_fd_sc_mcu7t5v0__fill_1
XFILLER_68_1396 vdd vss gf180mcu_fd_sc_mcu7t5v0__fill_2
XANTENNA__11718__I _03661_ vdd vss gf180mcu_fd_sc_mcu7t5v0__antenna
XFILLER_95_103 vdd vss gf180mcu_fd_sc_mcu7t5v0__fillcap_4
XANTENNA__08299__I _03674_ vdd vss gf180mcu_fd_sc_mcu7t5v0__antenna
X_11127_ _05457_ _01131_ vdd vss gf180mcu_fd_sc_mcu7t5v0__clkbuf_1
XANTENNA_clkbuf_leaf_142_clock_I clknet_5_13_0_clock vdd vss gf180mcu_fd_sc_mcu7t5v0__antenna
XFILLER_95_136 vdd vss gf180mcu_fd_sc_mcu7t5v0__fill_2
XFILLER_42_1536 vdd vss gf180mcu_fd_sc_mcu7t5v0__fillcap_4
XFILLER_77_851 vdd vss gf180mcu_fd_sc_mcu7t5v0__fill_1
XFILLER_95_158 vdd vss gf180mcu_fd_sc_mcu7t5v0__fill_2
X_11058_ _05384_ u2.mem\[141\]\[1\] _05413_ _05415_ vdd vss gf180mcu_fd_sc_mcu7t5v0__mux2_2
XFILLER_67_70 vdd vss gf180mcu_fd_sc_mcu7t5v0__fill_1
XFILLER_77_862 vdd vss gf180mcu_fd_sc_mcu7t5v0__fillcap_4
XANTENNA__07516__A1 u2.mem\[58\]\[7\] vdd vss gf180mcu_fd_sc_mcu7t5v0__antenna
XFILLER_97_1003 vdd vss gf180mcu_fd_sc_mcu7t5v0__fillcap_8
X_10009_ _04685_ u2.mem\[44\]\[1\] _04762_ _04764_ vdd vss gf180mcu_fd_sc_mcu7t5v0__mux2_2
XFILLER_64_512 vdd vss gf180mcu_fd_sc_mcu7t5v0__fillcap_8
XFILLER_77_895 vdd vss gf180mcu_fd_sc_mcu7t5v0__fill_2
XFILLER_64_534 vdd vss gf180mcu_fd_sc_mcu7t5v0__fillcap_4
XFILLER_92_854 vdd vss gf180mcu_fd_sc_mcu7t5v0__fill_1
XFILLER_36_247 vdd vss gf180mcu_fd_sc_mcu7t5v0__fill_1
XFILLER_40_1282 vdd vss gf180mcu_fd_sc_mcu7t5v0__fill_2
XTAP_3780 vdd vss gf180mcu_fd_sc_mcu7t5v0__filltie
XANTENNA__08316__I0 _03688_ vdd vss gf180mcu_fd_sc_mcu7t5v0__antenna
XTAP_3791 vdd vss gf180mcu_fd_sc_mcu7t5v0__filltie
XFILLER_75_1323 vdd vss gf180mcu_fd_sc_mcu7t5v0__fill_1
XFILLER_33_943 vdd vss gf180mcu_fd_sc_mcu7t5v0__fill_1
XFILLER_166_1473 vdd vss gf180mcu_fd_sc_mcu7t5v0__fillcap_8
XFILLER_162_1315 vdd vss gf180mcu_fd_sc_mcu7t5v0__fill_1
XFILLER_36_1329 vdd vss gf180mcu_fd_sc_mcu7t5v0__fill_1
XFILLER_71_1209 vdd vss gf180mcu_fd_sc_mcu7t5v0__fillcap_4
XANTENNA__10069__I _04591_ vdd vss gf180mcu_fd_sc_mcu7t5v0__antenna
XANTENNA__11871__I0 _05915_ vdd vss gf180mcu_fd_sc_mcu7t5v0__antenna
XANTENNA__13243__CLK clknet_leaf_289_clock vdd vss gf180mcu_fd_sc_mcu7t5v0__antenna
X_07220_ _02674_ _02681_ _02688_ _02697_ _02698_ vdd vss gf180mcu_fd_sc_mcu7t5v0__nor4_1
XFILLER_20_626 vdd vss gf180mcu_fd_sc_mcu7t5v0__fill_2
XFILLER_34_1020 vdd vss gf180mcu_fd_sc_mcu7t5v0__fill_2
XFILLER_80_2 vdd vss gf180mcu_fd_sc_mcu7t5v0__fill_2
XFILLER_34_1031 vdd vss gf180mcu_fd_sc_mcu7t5v0__fill_1
XFILLER_164_108 vdd vss gf180mcu_fd_sc_mcu7t5v0__fill_1
XFILLER_158_672 vdd vss gf180mcu_fd_sc_mcu7t5v0__fill_2
XFILLER_121_1012 vdd vss gf180mcu_fd_sc_mcu7t5v0__fill_2
XFILLER_164_119 vdd vss gf180mcu_fd_sc_mcu7t5v0__fill_2
XFILLER_125_1181 vdd vss gf180mcu_fd_sc_mcu7t5v0__fill_2
X_07151_ u2.mem\[5\]\[0\] _02627_ _02629_ u2.mem\[38\]\[0\] _02630_ vdd vss gf180mcu_fd_sc_mcu7t5v0__aoi22_1
XANTENNA_clkbuf_leaf_67_clock_I clknet_5_9_0_clock vdd vss gf180mcu_fd_sc_mcu7t5v0__antenna
XFILLER_173_620 vdd vss gf180mcu_fd_sc_mcu7t5v0__fill_2
XFILLER_157_171 vdd vss gf180mcu_fd_sc_mcu7t5v0__fillcap_8
XFILLER_145_311 vdd vss gf180mcu_fd_sc_mcu7t5v0__fill_1
XANTENNA__09292__I1 u2.mem\[27\]\[3\] vdd vss gf180mcu_fd_sc_mcu7t5v0__antenna
XANTENNA__07378__I _02605_ vdd vss gf180mcu_fd_sc_mcu7t5v0__antenna
X_06102_ _01547_ _01608_ _01609_ vdd vss gf180mcu_fd_sc_mcu7t5v0__or2_1
XFILLER_121_1067 vdd vss gf180mcu_fd_sc_mcu7t5v0__fill_1
XANTENNA__09794__S _04633_ vdd vss gf180mcu_fd_sc_mcu7t5v0__antenna
X_07082_ _02448_ _02561_ vdd vss gf180mcu_fd_sc_mcu7t5v0__buf_2
XANTENNA__06255__B2 u2.mem\[188\]\[1\] vdd vss gf180mcu_fd_sc_mcu7t5v0__antenna
XFILLER_121_1078 vdd vss gf180mcu_fd_sc_mcu7t5v0__fillcap_4
XANTENNA__13393__CLK clknet_leaf_327_clock vdd vss gf180mcu_fd_sc_mcu7t5v0__antenna
XFILLER_69_1138 vdd vss gf180mcu_fd_sc_mcu7t5v0__fill_1
XFILLER_146_889 vdd vss gf180mcu_fd_sc_mcu7t5v0__fillcap_4
XFILLER_121_1089 vdd vss gf180mcu_fd_sc_mcu7t5v0__fill_2
XFILLER_160_303 vdd vss gf180mcu_fd_sc_mcu7t5v0__fill_2
XFILLER_103_1490 vdd vss gf180mcu_fd_sc_mcu7t5v0__fill_1
XANTENNA__11829__S _05896_ vdd vss gf180mcu_fd_sc_mcu7t5v0__antenna
X_06033_ _01528_ _01540_ _01541_ _01542_ vdd vss gf180mcu_fd_sc_mcu7t5v0__mux2_2
XFILLER_173_1411 vdd vss gf180mcu_fd_sc_mcu7t5v0__fillcap_8
XFILLER_138_1531 vdd vss gf180mcu_fd_sc_mcu7t5v0__fillcap_4
XFILLER_47_1414 vdd vss gf180mcu_fd_sc_mcu7t5v0__fillcap_4
XFILLER_173_1422 vdd vss gf180mcu_fd_sc_mcu7t5v0__fillcap_4
XFILLER_47_1436 vdd vss gf180mcu_fd_sc_mcu7t5v0__fill_2
XANTENNA__11926__I1 u2.mem\[193\]\[5\] vdd vss gf180mcu_fd_sc_mcu7t5v0__antenna
XFILLER_113_241 vdd vss gf180mcu_fd_sc_mcu7t5v0__fill_2
XANTENNA__08203__S _03608_ vdd vss gf180mcu_fd_sc_mcu7t5v0__antenna
XFILLER_87_604 vdd vss gf180mcu_fd_sc_mcu7t5v0__fill_2
XFILLER_138_1575 vdd vss gf180mcu_fd_sc_mcu7t5v0__fillcap_4
XFILLER_134_1417 vdd vss gf180mcu_fd_sc_mcu7t5v0__fill_2
XFILLER_134_1428 vdd vss gf180mcu_fd_sc_mcu7t5v0__fill_2
XFILLER_173_1488 vdd vss gf180mcu_fd_sc_mcu7t5v0__fill_2
XFILLER_101_425 vdd vss gf180mcu_fd_sc_mcu7t5v0__fill_1
XFILLER_87_648 vdd vss gf180mcu_fd_sc_mcu7t5v0__fill_2
X_07984_ u2.mem\[17\]\[15\] _03312_ _03313_ u2.mem\[24\]\[15\] _03448_ vdd vss gf180mcu_fd_sc_mcu7t5v0__aoi22_1
XFILLER_101_436 vdd vss gf180mcu_fd_sc_mcu7t5v0__fillcap_4
X_09723_ data_in_trans\[6\].data_sync _04585_ vdd vss gf180mcu_fd_sc_mcu7t5v0__clkbuf_1
XFILLER_28_704 vdd vss gf180mcu_fd_sc_mcu7t5v0__fill_2
X_06935_ _01551_ _02016_ _02414_ vdd vss gf180mcu_fd_sc_mcu7t5v0__nor2_1
XFILLER_74_309 vdd vss gf180mcu_fd_sc_mcu7t5v0__fillcap_8
XFILLER_80_1095 vdd vss gf180mcu_fd_sc_mcu7t5v0__fill_2
XANTENNA__11564__S _05731_ vdd vss gf180mcu_fd_sc_mcu7t5v0__antenna
XFILLER_55_512 vdd vss gf180mcu_fd_sc_mcu7t5v0__fill_2
X_09654_ _04496_ u2.mem\[35\]\[14\] _04537_ _04540_ vdd vss gf180mcu_fd_sc_mcu7t5v0__mux2_2
X_06866_ _02339_ _02344_ _02345_ vdd vss gf180mcu_fd_sc_mcu7t5v0__nand2_1
XANTENNA__07841__I _02581_ vdd vss gf180mcu_fd_sc_mcu7t5v0__antenna
XFILLER_83_854 vdd vss gf180mcu_fd_sc_mcu7t5v0__fill_1
XFILLER_27_247 vdd vss gf180mcu_fd_sc_mcu7t5v0__fill_2
X_08605_ _03874_ _00192_ vdd vss gf180mcu_fd_sc_mcu7t5v0__clkbuf_1
XFILLER_27_258 vdd vss gf180mcu_fd_sc_mcu7t5v0__fill_2
XFILLER_55_567 vdd vss gf180mcu_fd_sc_mcu7t5v0__fill_1
XFILLER_110_1450 vdd vss gf180mcu_fd_sc_mcu7t5v0__fillcap_4
XFILLER_103_57 vdd vss gf180mcu_fd_sc_mcu7t5v0__fill_2
X_09585_ _04500_ _04501_ vdd vss gf180mcu_fd_sc_mcu7t5v0__clkbuf_2
X_06797_ u2.mem\[164\]\[4\] _02050_ _02053_ u2.mem\[178\]\[4\] _02278_ vdd vss gf180mcu_fd_sc_mcu7t5v0__aoi22_1
XFILLER_58_1521 vdd vss gf180mcu_fd_sc_mcu7t5v0__fill_2
XTAP_1107 vdd vss gf180mcu_fd_sc_mcu7t5v0__filltie
XFILLER_36_770 vdd vss gf180mcu_fd_sc_mcu7t5v0__fillcap_8
XFILLER_82_386 vdd vss gf180mcu_fd_sc_mcu7t5v0__fillcap_4
XANTENNA__06730__A2 _02043_ vdd vss gf180mcu_fd_sc_mcu7t5v0__antenna
XTAP_1118 vdd vss gf180mcu_fd_sc_mcu7t5v0__filltie
XFILLER_42_217 vdd vss gf180mcu_fd_sc_mcu7t5v0__fill_2
XANTENNA__09969__S _04740_ vdd vss gf180mcu_fd_sc_mcu7t5v0__antenna
XTAP_1129 vdd vss gf180mcu_fd_sc_mcu7t5v0__filltie
X_08536_ _03797_ u2.mem\[10\]\[0\] _03835_ _03836_ vdd vss gf180mcu_fd_sc_mcu7t5v0__mux2_2
XFILLER_23_420 vdd vss gf180mcu_fd_sc_mcu7t5v0__fill_2
XANTENNA_clkbuf_leaf_344_clock_I clknet_5_7_0_clock vdd vss gf180mcu_fd_sc_mcu7t5v0__antenna
XFILLER_23_431 vdd vss gf180mcu_fd_sc_mcu7t5v0__fillcap_4
XFILLER_93_1467 vdd vss gf180mcu_fd_sc_mcu7t5v0__fill_2
XFILLER_145_1535 vdd vss gf180mcu_fd_sc_mcu7t5v0__fillcap_4
XFILLER_23_453 vdd vss gf180mcu_fd_sc_mcu7t5v0__fill_2