* NGSPICE file created from spi_core.ext - technology: gf180mcuC

* Black-box entry subcircuit for gf180mcu_fd_sc_mcu7t5v0__fillcap_32 abstract view
.subckt gf180mcu_fd_sc_mcu7t5v0__fillcap_32 VDD VSS
.ends

* Black-box entry subcircuit for gf180mcu_fd_sc_mcu7t5v0__filltie abstract view
.subckt gf180mcu_fd_sc_mcu7t5v0__filltie VDD VSS
.ends

* Black-box entry subcircuit for gf180mcu_fd_sc_mcu7t5v0__fill_2 abstract view
.subckt gf180mcu_fd_sc_mcu7t5v0__fill_2 VDD VSS
.ends

* Black-box entry subcircuit for gf180mcu_fd_sc_mcu7t5v0__fillcap_4 abstract view
.subckt gf180mcu_fd_sc_mcu7t5v0__fillcap_4 VDD VSS
.ends

* Black-box entry subcircuit for gf180mcu_fd_sc_mcu7t5v0__fillcap_8 abstract view
.subckt gf180mcu_fd_sc_mcu7t5v0__fillcap_8 VDD VSS
.ends

* Black-box entry subcircuit for gf180mcu_fd_sc_mcu7t5v0__fill_1 abstract view
.subckt gf180mcu_fd_sc_mcu7t5v0__fill_1 VDD VSS
.ends

* Black-box entry subcircuit for gf180mcu_fd_sc_mcu7t5v0__fillcap_64 abstract view
.subckt gf180mcu_fd_sc_mcu7t5v0__fillcap_64 VDD VSS
.ends

* Black-box entry subcircuit for gf180mcu_fd_sc_mcu7t5v0__antenna abstract view
.subckt gf180mcu_fd_sc_mcu7t5v0__antenna I VDD VSS
.ends

* Black-box entry subcircuit for gf180mcu_fd_sc_mcu7t5v0__fillcap_16 abstract view
.subckt gf180mcu_fd_sc_mcu7t5v0__fillcap_16 VDD VSS
.ends

* Black-box entry subcircuit for gf180mcu_fd_sc_mcu7t5v0__clkbuf_1 abstract view
.subckt gf180mcu_fd_sc_mcu7t5v0__clkbuf_1 I Z VDD VSS
.ends

* Black-box entry subcircuit for gf180mcu_fd_sc_mcu7t5v0__clkbuf_3 abstract view
.subckt gf180mcu_fd_sc_mcu7t5v0__clkbuf_3 I Z VDD VSS
.ends

* Black-box entry subcircuit for gf180mcu_fd_sc_mcu7t5v0__mux2_2 abstract view
.subckt gf180mcu_fd_sc_mcu7t5v0__mux2_2 I0 I1 S Z VDD VSS
.ends

* Black-box entry subcircuit for gf180mcu_fd_sc_mcu7t5v0__dffq_1 abstract view
.subckt gf180mcu_fd_sc_mcu7t5v0__dffq_1 D CLK Q VDD VSS
.ends

* Black-box entry subcircuit for gf180mcu_fd_sc_mcu7t5v0__clkbuf_16 abstract view
.subckt gf180mcu_fd_sc_mcu7t5v0__clkbuf_16 I Z VDD VSS
.ends

* Black-box entry subcircuit for gf180mcu_fd_sc_mcu7t5v0__clkbuf_2 abstract view
.subckt gf180mcu_fd_sc_mcu7t5v0__clkbuf_2 I Z VDD VSS
.ends

* Black-box entry subcircuit for gf180mcu_fd_sc_mcu7t5v0__endcap abstract view
.subckt gf180mcu_fd_sc_mcu7t5v0__endcap VDD VSS
.ends

* Black-box entry subcircuit for gf180mcu_fd_sc_mcu7t5v0__clkinv_1 abstract view
.subckt gf180mcu_fd_sc_mcu7t5v0__clkinv_1 I ZN VDD VSS
.ends

* Black-box entry subcircuit for gf180mcu_fd_sc_mcu7t5v0__and2_1 abstract view
.subckt gf180mcu_fd_sc_mcu7t5v0__and2_1 A1 A2 Z VDD VSS
.ends

* Black-box entry subcircuit for gf180mcu_fd_sc_mcu7t5v0__dlyb_1 abstract view
.subckt gf180mcu_fd_sc_mcu7t5v0__dlyb_1 I Z VDD VSS
.ends

* Black-box entry subcircuit for gf180mcu_fd_sc_mcu7t5v0__tiel abstract view
.subckt gf180mcu_fd_sc_mcu7t5v0__tiel ZN VDD VSS
.ends

* Black-box entry subcircuit for gf180mcu_fd_sc_mcu7t5v0__tieh abstract view
.subckt gf180mcu_fd_sc_mcu7t5v0__tieh Z VDD VSS
.ends

* Black-box entry subcircuit for gf180mcu_fd_sc_mcu7t5v0__buf_1 abstract view
.subckt gf180mcu_fd_sc_mcu7t5v0__buf_1 I Z VDD VSS
.ends

* Black-box entry subcircuit for gf180mcu_fd_sc_mcu7t5v0__nand3_1 abstract view
.subckt gf180mcu_fd_sc_mcu7t5v0__nand3_1 A1 A2 A3 ZN VDD VSS
.ends

* Black-box entry subcircuit for gf180mcu_fd_sc_mcu7t5v0__nand2_1 abstract view
.subckt gf180mcu_fd_sc_mcu7t5v0__nand2_1 A1 A2 ZN VDD VSS
.ends

.subckt spi_core clock clock_out data_out[0] data_out[10] data_out[11] data_out[12]
+ data_out[13] data_out[14] data_out[15] data_out[16] data_out[17] data_out[18] data_out[19]
+ data_out[1] data_out[20] data_out[21] data_out[22] data_out[23] data_out[24] data_out[25]
+ data_out[26] data_out[27] data_out[28] data_out[29] data_out[2] data_out[30] data_out[31]
+ data_out[3] data_out[4] data_out[5] data_out[6] data_out[7] data_out[8] data_out[9]
+ la_data_in[0] la_data_in[1] la_data_in[2] la_data_in[3] la_oenb[0] la_oenb[1] la_oenb[2]
+ la_oenb[3] miso miso_oeb mosi mosi_oeb sclk sclk_oeb ss_n ss_n_oeb vdd vss
XFILLER_54_247 vdd vss gf180mcu_fd_sc_mcu7t5v0__fillcap_32
XTAP_177 vdd vss gf180mcu_fd_sc_mcu7t5v0__filltie
XTAP_188 vdd vss gf180mcu_fd_sc_mcu7t5v0__filltie
XTAP_199 vdd vss gf180mcu_fd_sc_mcu7t5v0__filltie
XFILLER_27_417 vdd vss gf180mcu_fd_sc_mcu7t5v0__fill_2
XFILLER_39_255 vdd vss gf180mcu_fd_sc_mcu7t5v0__fillcap_4
XFILLER_39_277 vdd vss gf180mcu_fd_sc_mcu7t5v0__fill_2
XFILLER_9_137 vdd vss gf180mcu_fd_sc_mcu7t5v0__fillcap_4
XFILLER_13_144 vdd vss gf180mcu_fd_sc_mcu7t5v0__fillcap_8
XFILLER_5_354 vdd vss gf180mcu_fd_sc_mcu7t5v0__fill_1
XFILLER_36_247 vdd vss gf180mcu_fd_sc_mcu7t5v0__fill_1
XFILLER_50_250 vdd vss gf180mcu_fd_sc_mcu7t5v0__fillcap_64
XANTENNA__163__CLK clknet_2_1__leaf_clock vdd vss gf180mcu_fd_sc_mcu7t5v0__antenna
XFILLER_18_247 vdd vss gf180mcu_fd_sc_mcu7t5v0__fill_1
XFILLER_37_73 vdd vss gf180mcu_fd_sc_mcu7t5v0__fillcap_64
XFILLER_49_350 vdd vss gf180mcu_fd_sc_mcu7t5v0__fillcap_4
XFILLER_5_184 vdd vss gf180mcu_fd_sc_mcu7t5v0__fillcap_16
XANTENNA__186__CLK clknet_2_3__leaf_clock vdd vss gf180mcu_fd_sc_mcu7t5v0__antenna
XFILLER_32_250 vdd vss gf180mcu_fd_sc_mcu7t5v0__fillcap_64
XFILLER_23_283 vdd vss gf180mcu_fd_sc_mcu7t5v0__fill_1
X_131_ _045_ _020_ vdd vss gf180mcu_fd_sc_mcu7t5v0__clkbuf_1
XFILLER_2_176 vdd vss gf180mcu_fd_sc_mcu7t5v0__fill_1
XFILLER_0_68 vdd vss gf180mcu_fd_sc_mcu7t5v0__fill_2
XFILLER_9_66 vdd vss gf180mcu_fd_sc_mcu7t5v0__fillcap_4
XFILLER_14_250 vdd vss gf180mcu_fd_sc_mcu7t5v0__fillcap_64
XFILLER_43_2 vdd vss gf180mcu_fd_sc_mcu7t5v0__fillcap_64
XFILLER_52_389 vdd vss gf180mcu_fd_sc_mcu7t5v0__fill_1
XFILLER_37_364 vdd vss gf180mcu_fd_sc_mcu7t5v0__fill_1
XFILLER_4_419 vdd vss gf180mcu_fd_sc_mcu7t5v0__fill_1
XFILLER_43_334 vdd vss gf180mcu_fd_sc_mcu7t5v0__fillcap_4
XFILLER_28_353 vdd vss gf180mcu_fd_sc_mcu7t5v0__fill_2
XFILLER_7_279 vdd vss gf180mcu_fd_sc_mcu7t5v0__fillcap_4
XFILLER_11_286 vdd vss gf180mcu_fd_sc_mcu7t5v0__fill_2
X_114_ _035_ _013_ vdd vss gf180mcu_fd_sc_mcu7t5v0__clkbuf_1
XFILLER_46_172 vdd vss gf180mcu_fd_sc_mcu7t5v0__fillcap_4
XFILLER_19_375 vdd vss gf180mcu_fd_sc_mcu7t5v0__fill_2
XFILLER_34_389 vdd vss gf180mcu_fd_sc_mcu7t5v0__fill_1
XANTENNA__082__I _062_ vdd vss gf180mcu_fd_sc_mcu7t5v0__antenna
XFILLER_40_315 vdd vss gf180mcu_fd_sc_mcu7t5v0__fill_1
XFILLER_25_367 vdd vss gf180mcu_fd_sc_mcu7t5v0__fill_2
XFILLER_48_415 vdd vss gf180mcu_fd_sc_mcu7t5v0__fillcap_4
XFILLER_45_73 vdd vss gf180mcu_fd_sc_mcu7t5v0__fillcap_64
XFILLER_16_345 vdd vss gf180mcu_fd_sc_mcu7t5v0__fillcap_4
XFILLER_16_389 vdd vss gf180mcu_fd_sc_mcu7t5v0__fill_1
XFILLER_28_172 vdd vss gf180mcu_fd_sc_mcu7t5v0__fillcap_4
XFILLER_6_34 vdd vss gf180mcu_fd_sc_mcu7t5v0__fill_1
XFILLER_31_348 vdd vss gf180mcu_fd_sc_mcu7t5v0__fillcap_4
XTAP_348 vdd vss gf180mcu_fd_sc_mcu7t5v0__filltie
XTAP_337 vdd vss gf180mcu_fd_sc_mcu7t5v0__filltie
XTAP_304 vdd vss gf180mcu_fd_sc_mcu7t5v0__filltie
XTAP_315 vdd vss gf180mcu_fd_sc_mcu7t5v0__filltie
XTAP_326 vdd vss gf180mcu_fd_sc_mcu7t5v0__filltie
XFILLER_54_418 vdd vss gf180mcu_fd_sc_mcu7t5v0__fill_2
XTAP_359 vdd vss gf180mcu_fd_sc_mcu7t5v0__filltie
XFILLER_30_392 vdd vss gf180mcu_fd_sc_mcu7t5v0__fill_1
XFILLER_1_208 vdd vss gf180mcu_fd_sc_mcu7t5v0__fillcap_4
XFILLER_45_418 vdd vss gf180mcu_fd_sc_mcu7t5v0__fill_2
XFILLER_40_101 vdd vss gf180mcu_fd_sc_mcu7t5v0__fillcap_4
Xoutput20 net20 data_out[23] vdd vss gf180mcu_fd_sc_mcu7t5v0__clkbuf_3
Xoutput31 net31 data_out[4] vdd vss gf180mcu_fd_sc_mcu7t5v0__clkbuf_3
Xoutput7 net7 data_out[11] vdd vss gf180mcu_fd_sc_mcu7t5v0__clkbuf_3
XFILLER_0_241 vdd vss gf180mcu_fd_sc_mcu7t5v0__fillcap_4
XFILLER_36_407 vdd vss gf180mcu_fd_sc_mcu7t5v0__fillcap_8
XFILLER_12_392 vdd vss gf180mcu_fd_sc_mcu7t5v0__fill_1
XTAP_156 vdd vss gf180mcu_fd_sc_mcu7t5v0__filltie
XTAP_145 vdd vss gf180mcu_fd_sc_mcu7t5v0__filltie
XTAP_134 vdd vss gf180mcu_fd_sc_mcu7t5v0__filltie
XTAP_112 vdd vss gf180mcu_fd_sc_mcu7t5v0__filltie
XTAP_123 vdd vss gf180mcu_fd_sc_mcu7t5v0__filltie
XTAP_167 vdd vss gf180mcu_fd_sc_mcu7t5v0__filltie
XTAP_178 vdd vss gf180mcu_fd_sc_mcu7t5v0__filltie
XTAP_189 vdd vss gf180mcu_fd_sc_mcu7t5v0__filltie
XFILLER_39_212 vdd vss gf180mcu_fd_sc_mcu7t5v0__fill_1
XFILLER_10_318 vdd vss gf180mcu_fd_sc_mcu7t5v0__fill_1
XFILLER_22_101 vdd vss gf180mcu_fd_sc_mcu7t5v0__fillcap_4
XFILLER_45_215 vdd vss gf180mcu_fd_sc_mcu7t5v0__fillcap_64
XFILLER_13_134 vdd vss gf180mcu_fd_sc_mcu7t5v0__fillcap_8
XFILLER_13_189 vdd vss gf180mcu_fd_sc_mcu7t5v0__fill_2
XFILLER_5_377 vdd vss gf180mcu_fd_sc_mcu7t5v0__fill_2
XANTENNA_clkbuf_2_1__f_clock_I clknet_0_clock vdd vss gf180mcu_fd_sc_mcu7t5v0__antenna
XFILLER_27_215 vdd vss gf180mcu_fd_sc_mcu7t5v0__fillcap_64
XFILLER_6_108 vdd vss gf180mcu_fd_sc_mcu7t5v0__fill_1
XFILLER_53_73 vdd vss gf180mcu_fd_sc_mcu7t5v0__fillcap_64
XFILLER_5_141 vdd vss gf180mcu_fd_sc_mcu7t5v0__fill_1
XFILLER_1_391 vdd vss gf180mcu_fd_sc_mcu7t5v0__fillcap_16
X_130_ net15 net17 _044_ _045_ vdd vss gf180mcu_fd_sc_mcu7t5v0__mux2_2
XFILLER_3_2 vdd vss gf180mcu_fd_sc_mcu7t5v0__fillcap_64
XFILLER_46_321 vdd vss gf180mcu_fd_sc_mcu7t5v0__fillcap_64
XFILLER_36_2 vdd vss gf180mcu_fd_sc_mcu7t5v0__fillcap_32
XFILLER_37_332 vdd vss gf180mcu_fd_sc_mcu7t5v0__fillcap_4
XFILLER_37_354 vdd vss gf180mcu_fd_sc_mcu7t5v0__fill_1
XFILLER_20_243 vdd vss gf180mcu_fd_sc_mcu7t5v0__fillcap_4
XFILLER_43_357 vdd vss gf180mcu_fd_sc_mcu7t5v0__fill_1
XFILLER_43_346 vdd vss gf180mcu_fd_sc_mcu7t5v0__fillcap_8
XFILLER_28_321 vdd vss gf180mcu_fd_sc_mcu7t5v0__fillcap_32
X_113_ net8 net9 _033_ _035_ vdd vss gf180mcu_fd_sc_mcu7t5v0__mux2_2
XANTENNA__176__CLK clknet_2_2__leaf_clock vdd vss gf180mcu_fd_sc_mcu7t5v0__antenna
XFILLER_19_354 vdd vss gf180mcu_fd_sc_mcu7t5v0__fill_1
XANTENNA__152__I0 net26 vdd vss gf180mcu_fd_sc_mcu7t5v0__antenna
XFILLER_25_357 vdd vss gf180mcu_fd_sc_mcu7t5v0__fillcap_8
XFILLER_52_176 vdd vss gf180mcu_fd_sc_mcu7t5v0__fill_1
XANTENNA__143__I0 net22 vdd vss gf180mcu_fd_sc_mcu7t5v0__antenna
XTAP_349 vdd vss gf180mcu_fd_sc_mcu7t5v0__filltie
XTAP_338 vdd vss gf180mcu_fd_sc_mcu7t5v0__filltie
XFILLER_3_294 vdd vss gf180mcu_fd_sc_mcu7t5v0__fillcap_4
XFILLER_3_283 vdd vss gf180mcu_fd_sc_mcu7t5v0__fill_1
XTAP_305 vdd vss gf180mcu_fd_sc_mcu7t5v0__filltie
XTAP_316 vdd vss gf180mcu_fd_sc_mcu7t5v0__filltie
XTAP_327 vdd vss gf180mcu_fd_sc_mcu7t5v0__filltie
XFILLER_34_176 vdd vss gf180mcu_fd_sc_mcu7t5v0__fill_1
XFILLER_40_179 vdd vss gf180mcu_fd_sc_mcu7t5v0__fillcap_64
Xoutput21 net21 data_out[24] vdd vss gf180mcu_fd_sc_mcu7t5v0__clkbuf_3
Xoutput32 net32 data_out[5] vdd vss gf180mcu_fd_sc_mcu7t5v0__clkbuf_3
Xoutput8 net8 data_out[12] vdd vss gf180mcu_fd_sc_mcu7t5v0__clkbuf_3
Xoutput10 net10 data_out[14] vdd vss gf180mcu_fd_sc_mcu7t5v0__clkbuf_3
XFILLER_36_419 vdd vss gf180mcu_fd_sc_mcu7t5v0__fill_1
XFILLER_16_176 vdd vss gf180mcu_fd_sc_mcu7t5v0__fill_1
XTAP_157 vdd vss gf180mcu_fd_sc_mcu7t5v0__filltie
XTAP_146 vdd vss gf180mcu_fd_sc_mcu7t5v0__filltie
XTAP_135 vdd vss gf180mcu_fd_sc_mcu7t5v0__filltie
XTAP_113 vdd vss gf180mcu_fd_sc_mcu7t5v0__filltie
XTAP_124 vdd vss gf180mcu_fd_sc_mcu7t5v0__filltie
XTAP_168 vdd vss gf180mcu_fd_sc_mcu7t5v0__filltie
XTAP_179 vdd vss gf180mcu_fd_sc_mcu7t5v0__filltie
XANTENNA_input3_I ss_n vdd vss gf180mcu_fd_sc_mcu7t5v0__antenna
XFILLER_27_419 vdd vss gf180mcu_fd_sc_mcu7t5v0__fill_1
XFILLER_39_279 vdd vss gf180mcu_fd_sc_mcu7t5v0__fill_1
XFILLER_22_179 vdd vss gf180mcu_fd_sc_mcu7t5v0__fillcap_64
XFILLER_18_408 vdd vss gf180mcu_fd_sc_mcu7t5v0__fillcap_8
XFILLER_41_411 vdd vss gf180mcu_fd_sc_mcu7t5v0__fill_2
XFILLER_51_208 vdd vss gf180mcu_fd_sc_mcu7t5v0__fillcap_4
XFILLER_8_172 vdd vss gf180mcu_fd_sc_mcu7t5v0__fillcap_4
XFILLER_10_105 vdd vss gf180mcu_fd_sc_mcu7t5v0__fill_1
XFILLER_12_34 vdd vss gf180mcu_fd_sc_mcu7t5v0__fill_1
XFILLER_33_208 vdd vss gf180mcu_fd_sc_mcu7t5v0__fillcap_4
XFILLER_1_381 vdd vss gf180mcu_fd_sc_mcu7t5v0__fillcap_4
XFILLER_7_418 vdd vss gf180mcu_fd_sc_mcu7t5v0__fill_2
XFILLER_23_66 vdd vss gf180mcu_fd_sc_mcu7t5v0__fillcap_4
XFILLER_0_37 vdd vss gf180mcu_fd_sc_mcu7t5v0__fillcap_16
X_189_ _024_ clknet_2_3__leaf_clock net21 vdd vss gf180mcu_fd_sc_mcu7t5v0__dffq_1
XFILLER_29_2 vdd vss gf180mcu_fd_sc_mcu7t5v0__fillcap_64
XFILLER_52_314 vdd vss gf180mcu_fd_sc_mcu7t5v0__fillcap_4
XFILLER_37_344 vdd vss gf180mcu_fd_sc_mcu7t5v0__fill_2
XFILLER_28_366 vdd vss gf180mcu_fd_sc_mcu7t5v0__fill_1
XFILLER_28_355 vdd vss gf180mcu_fd_sc_mcu7t5v0__fill_1
XFILLER_7_215 vdd vss gf180mcu_fd_sc_mcu7t5v0__fillcap_64
XFILLER_11_288 vdd vss gf180mcu_fd_sc_mcu7t5v0__fill_1
X_112_ _034_ _012_ vdd vss gf180mcu_fd_sc_mcu7t5v0__clkbuf_1
XFILLER_34_314 vdd vss gf180mcu_fd_sc_mcu7t5v0__fillcap_4
XFILLER_38_108 vdd vss gf180mcu_fd_sc_mcu7t5v0__fillcap_64
XFILLER_34_369 vdd vss gf180mcu_fd_sc_mcu7t5v0__fillcap_4
XANTENNA__152__I1 net28 vdd vss gf180mcu_fd_sc_mcu7t5v0__antenna
XFILLER_37_141 vdd vss gf180mcu_fd_sc_mcu7t5v0__fill_1
XFILLER_40_328 vdd vss gf180mcu_fd_sc_mcu7t5v0__fill_2
XANTENNA__143__I1 net23 vdd vss gf180mcu_fd_sc_mcu7t5v0__antenna
XFILLER_0_402 vdd vss gf180mcu_fd_sc_mcu7t5v0__fillcap_16
XFILLER_20_34 vdd vss gf180mcu_fd_sc_mcu7t5v0__fill_1
XFILLER_16_314 vdd vss gf180mcu_fd_sc_mcu7t5v0__fillcap_4
XFILLER_43_144 vdd vss gf180mcu_fd_sc_mcu7t5v0__fillcap_64
XTAP_339 vdd vss gf180mcu_fd_sc_mcu7t5v0__filltie
XTAP_306 vdd vss gf180mcu_fd_sc_mcu7t5v0__filltie
XTAP_317 vdd vss gf180mcu_fd_sc_mcu7t5v0__filltie
XTAP_328 vdd vss gf180mcu_fd_sc_mcu7t5v0__filltie
XFILLER_19_141 vdd vss gf180mcu_fd_sc_mcu7t5v0__fill_1
XFILLER_15_380 vdd vss gf180mcu_fd_sc_mcu7t5v0__fill_2
XFILLER_30_372 vdd vss gf180mcu_fd_sc_mcu7t5v0__fill_2
XFILLER_25_144 vdd vss gf180mcu_fd_sc_mcu7t5v0__fillcap_64
XANTENNA__166__CLK clknet_2_0__leaf_clock vdd vss gf180mcu_fd_sc_mcu7t5v0__antenna
XFILLER_21_350 vdd vss gf180mcu_fd_sc_mcu7t5v0__fillcap_4
Xoutput22 net22 data_out[25] vdd vss gf180mcu_fd_sc_mcu7t5v0__clkbuf_3
Xoutput33 net33 data_out[6] vdd vss gf180mcu_fd_sc_mcu7t5v0__clkbuf_3
Xoutput9 net9 data_out[13] vdd vss gf180mcu_fd_sc_mcu7t5v0__clkbuf_3
Xoutput11 net11 data_out[15] vdd vss gf180mcu_fd_sc_mcu7t5v0__clkbuf_3
XFILLER_48_247 vdd vss gf180mcu_fd_sc_mcu7t5v0__fill_1
XFILLER_8_321 vdd vss gf180mcu_fd_sc_mcu7t5v0__fill_2
XTAP_114 vdd vss gf180mcu_fd_sc_mcu7t5v0__filltie
XTAP_158 vdd vss gf180mcu_fd_sc_mcu7t5v0__filltie
XTAP_147 vdd vss gf180mcu_fd_sc_mcu7t5v0__filltie
XTAP_136 vdd vss gf180mcu_fd_sc_mcu7t5v0__filltie
XTAP_125 vdd vss gf180mcu_fd_sc_mcu7t5v0__filltie
XTAP_169 vdd vss gf180mcu_fd_sc_mcu7t5v0__filltie
XFILLER_11_2 vdd vss gf180mcu_fd_sc_mcu7t5v0__fillcap_64
XFILLER_39_247 vdd vss gf180mcu_fd_sc_mcu7t5v0__fillcap_8
XANTENNA__189__CLK clknet_2_3__leaf_clock vdd vss gf180mcu_fd_sc_mcu7t5v0__antenna
XFILLER_53_283 vdd vss gf180mcu_fd_sc_mcu7t5v0__fill_1
XFILLER_13_114 vdd vss gf180mcu_fd_sc_mcu7t5v0__fill_2
XFILLER_13_158 vdd vss gf180mcu_fd_sc_mcu7t5v0__fill_2
XFILLER_5_357 vdd vss gf180mcu_fd_sc_mcu7t5v0__fillcap_16
XFILLER_44_250 vdd vss gf180mcu_fd_sc_mcu7t5v0__fillcap_64
XFILLER_35_283 vdd vss gf180mcu_fd_sc_mcu7t5v0__fill_1
XFILLER_26_250 vdd vss gf180mcu_fd_sc_mcu7t5v0__fillcap_64
XFILLER_41_286 vdd vss gf180mcu_fd_sc_mcu7t5v0__fill_1
XFILLER_5_176 vdd vss gf180mcu_fd_sc_mcu7t5v0__fillcap_4
XFILLER_17_283 vdd vss gf180mcu_fd_sc_mcu7t5v0__fill_1
XFILLER_20_415 vdd vss gf180mcu_fd_sc_mcu7t5v0__fillcap_4
XFILLER_11_415 vdd vss gf180mcu_fd_sc_mcu7t5v0__fillcap_4
XFILLER_23_286 vdd vss gf180mcu_fd_sc_mcu7t5v0__fillcap_64
XFILLER_2_179 vdd vss gf180mcu_fd_sc_mcu7t5v0__fillcap_64
XFILLER_46_389 vdd vss gf180mcu_fd_sc_mcu7t5v0__fill_1
XFILLER_14_220 vdd vss gf180mcu_fd_sc_mcu7t5v0__fillcap_16
X_188_ _023_ clknet_2_2__leaf_clock net20 vdd vss gf180mcu_fd_sc_mcu7t5v0__dffq_1
XFILLER_37_301 vdd vss gf180mcu_fd_sc_mcu7t5v0__fill_2
XFILLER_37_367 vdd vss gf180mcu_fd_sc_mcu7t5v0__fill_2
XFILLER_18_34 vdd vss gf180mcu_fd_sc_mcu7t5v0__fill_1
XFILLER_11_212 vdd vss gf180mcu_fd_sc_mcu7t5v0__fill_1
XFILLER_28_389 vdd vss gf180mcu_fd_sc_mcu7t5v0__fill_1
X_111_ net7 net8 _033_ _034_ vdd vss gf180mcu_fd_sc_mcu7t5v0__mux2_2
XFILLER_42_392 vdd vss gf180mcu_fd_sc_mcu7t5v0__fillcap_4
XFILLER_41_2 vdd vss gf180mcu_fd_sc_mcu7t5v0__fillcap_64
XFILLER_52_101 vdd vss gf180mcu_fd_sc_mcu7t5v0__fillcap_4
XFILLER_40_318 vdd vss gf180mcu_fd_sc_mcu7t5v0__fill_1
XFILLER_48_407 vdd vss gf180mcu_fd_sc_mcu7t5v0__fillcap_8
XFILLER_16_337 vdd vss gf180mcu_fd_sc_mcu7t5v0__fillcap_8
XFILLER_29_66 vdd vss gf180mcu_fd_sc_mcu7t5v0__fillcap_4
XFILLER_24_392 vdd vss gf180mcu_fd_sc_mcu7t5v0__fillcap_4
XFILLER_6_37 vdd vss gf180mcu_fd_sc_mcu7t5v0__fillcap_64
XTAP_307 vdd vss gf180mcu_fd_sc_mcu7t5v0__filltie
XTAP_318 vdd vss gf180mcu_fd_sc_mcu7t5v0__filltie
XTAP_329 vdd vss gf180mcu_fd_sc_mcu7t5v0__filltie
XFILLER_39_418 vdd vss gf180mcu_fd_sc_mcu7t5v0__fill_2
XFILLER_22_318 vdd vss gf180mcu_fd_sc_mcu7t5v0__fill_1
XFILLER_34_101 vdd vss gf180mcu_fd_sc_mcu7t5v0__fillcap_4
XFILLER_30_351 vdd vss gf180mcu_fd_sc_mcu7t5v0__fill_2
XFILLER_30_384 vdd vss gf180mcu_fd_sc_mcu7t5v0__fillcap_4
XFILLER_21_373 vdd vss gf180mcu_fd_sc_mcu7t5v0__fill_1
Xoutput23 net23 data_out[26] vdd vss gf180mcu_fd_sc_mcu7t5v0__clkbuf_3
Xoutput34 net34 data_out[7] vdd vss gf180mcu_fd_sc_mcu7t5v0__clkbuf_3
Xoutput12 net12 data_out[16] vdd vss gf180mcu_fd_sc_mcu7t5v0__clkbuf_3
XFILLER_0_233 vdd vss gf180mcu_fd_sc_mcu7t5v0__fillcap_8
XFILLER_16_101 vdd vss gf180mcu_fd_sc_mcu7t5v0__fillcap_4
XFILLER_31_137 vdd vss gf180mcu_fd_sc_mcu7t5v0__fillcap_4
XTAP_148 vdd vss gf180mcu_fd_sc_mcu7t5v0__filltie
XTAP_137 vdd vss gf180mcu_fd_sc_mcu7t5v0__filltie
XTAP_126 vdd vss gf180mcu_fd_sc_mcu7t5v0__filltie
XTAP_115 vdd vss gf180mcu_fd_sc_mcu7t5v0__filltie
XTAP_159 vdd vss gf180mcu_fd_sc_mcu7t5v0__filltie
XFILLER_39_215 vdd vss gf180mcu_fd_sc_mcu7t5v0__fillcap_32
XFILLER_26_34 vdd vss gf180mcu_fd_sc_mcu7t5v0__fill_1
XFILLER_17_410 vdd vss gf180mcu_fd_sc_mcu7t5v0__fill_2
XANTENNA__156__CLK clknet_2_1__leaf_clock vdd vss gf180mcu_fd_sc_mcu7t5v0__antenna
Xclkbuf_0_clock clock clknet_0_clock vdd vss gf180mcu_fd_sc_mcu7t5v0__clkbuf_16
XFILLER_50_243 vdd vss gf180mcu_fd_sc_mcu7t5v0__fillcap_4
XFILLER_2_328 vdd vss gf180mcu_fd_sc_mcu7t5v0__fill_2
XFILLER_37_66 vdd vss gf180mcu_fd_sc_mcu7t5v0__fillcap_4
XANTENNA_output28_I net28 vdd vss gf180mcu_fd_sc_mcu7t5v0__antenna
XFILLER_5_144 vdd vss gf180mcu_fd_sc_mcu7t5v0__fillcap_32
XANTENNA__179__CLK clknet_2_2__leaf_clock vdd vss gf180mcu_fd_sc_mcu7t5v0__antenna
XFILLER_49_354 vdd vss gf180mcu_fd_sc_mcu7t5v0__fill_1
XFILLER_32_243 vdd vss gf180mcu_fd_sc_mcu7t5v0__fillcap_4
XANTENNA_clkbuf_2_0__f_clock_I clknet_0_clock vdd vss gf180mcu_fd_sc_mcu7t5v0__antenna
XFILLER_2_103 vdd vss gf180mcu_fd_sc_mcu7t5v0__fill_2
X_187_ _022_ clknet_2_2__leaf_clock net19 vdd vss gf180mcu_fd_sc_mcu7t5v0__dffq_1
XFILLER_37_357 vdd vss gf180mcu_fd_sc_mcu7t5v0__fill_1
XFILLER_43_338 vdd vss gf180mcu_fd_sc_mcu7t5v0__fill_2
X_110_ _063_ _033_ vdd vss gf180mcu_fd_sc_mcu7t5v0__clkbuf_2
XFILLER_34_34 vdd vss gf180mcu_fd_sc_mcu7t5v0__fill_1
XFILLER_11_279 vdd vss gf180mcu_fd_sc_mcu7t5v0__fillcap_4
XFILLER_1_2 vdd vss gf180mcu_fd_sc_mcu7t5v0__fill_1
XFILLER_46_176 vdd vss gf180mcu_fd_sc_mcu7t5v0__fill_1
XFILLER_19_357 vdd vss gf180mcu_fd_sc_mcu7t5v0__fillcap_16
XFILLER_42_382 vdd vss gf180mcu_fd_sc_mcu7t5v0__fill_1
XFILLER_6_250 vdd vss gf180mcu_fd_sc_mcu7t5v0__fillcap_64
XFILLER_34_2 vdd vss gf180mcu_fd_sc_mcu7t5v0__fillcap_32
XFILLER_52_179 vdd vss gf180mcu_fd_sc_mcu7t5v0__fillcap_64
XFILLER_48_419 vdd vss gf180mcu_fd_sc_mcu7t5v0__fill_1
XFILLER_45_66 vdd vss gf180mcu_fd_sc_mcu7t5v0__fillcap_4
XFILLER_16_349 vdd vss gf180mcu_fd_sc_mcu7t5v0__fill_1
XFILLER_28_176 vdd vss gf180mcu_fd_sc_mcu7t5v0__fill_1
XFILLER_3_286 vdd vss gf180mcu_fd_sc_mcu7t5v0__fillcap_8
XTAP_308 vdd vss gf180mcu_fd_sc_mcu7t5v0__filltie
XTAP_319 vdd vss gf180mcu_fd_sc_mcu7t5v0__filltie
XFILLER_34_179 vdd vss gf180mcu_fd_sc_mcu7t5v0__fillcap_64
XFILLER_40_105 vdd vss gf180mcu_fd_sc_mcu7t5v0__fill_1
XFILLER_15_69 vdd vss gf180mcu_fd_sc_mcu7t5v0__fill_2
Xoutput24 net24 data_out[27] vdd vss gf180mcu_fd_sc_mcu7t5v0__clkbuf_3
XFILLER_0_212 vdd vss gf180mcu_fd_sc_mcu7t5v0__fill_1
Xoutput35 net35 data_out[8] vdd vss gf180mcu_fd_sc_mcu7t5v0__clkbuf_3
Xoutput13 net13 data_out[17] vdd vss gf180mcu_fd_sc_mcu7t5v0__clkbuf_3
XFILLER_44_411 vdd vss gf180mcu_fd_sc_mcu7t5v0__fillcap_8
XFILLER_16_179 vdd vss gf180mcu_fd_sc_mcu7t5v0__fillcap_64
XFILLER_8_323 vdd vss gf180mcu_fd_sc_mcu7t5v0__fill_1
XFILLER_8_389 vdd vss gf180mcu_fd_sc_mcu7t5v0__fill_1
XFILLER_12_385 vdd vss gf180mcu_fd_sc_mcu7t5v0__fillcap_4
XTAP_149 vdd vss gf180mcu_fd_sc_mcu7t5v0__filltie
XTAP_138 vdd vss gf180mcu_fd_sc_mcu7t5v0__filltie
XTAP_127 vdd vss gf180mcu_fd_sc_mcu7t5v0__filltie
XTAP_116 vdd vss gf180mcu_fd_sc_mcu7t5v0__filltie
XFILLER_22_105 vdd vss gf180mcu_fd_sc_mcu7t5v0__fill_1
XFILLER_7_70 vdd vss gf180mcu_fd_sc_mcu7t5v0__fill_1
XFILLER_45_208 vdd vss gf180mcu_fd_sc_mcu7t5v0__fillcap_4
XFILLER_26_411 vdd vss gf180mcu_fd_sc_mcu7t5v0__fillcap_8
XFILLER_42_34 vdd vss gf180mcu_fd_sc_mcu7t5v0__fill_1
XFILLER_5_348 vdd vss gf180mcu_fd_sc_mcu7t5v0__fill_2
XFILLER_4_392 vdd vss gf180mcu_fd_sc_mcu7t5v0__fillcap_4
XANTENNA_input1_I mosi vdd vss gf180mcu_fd_sc_mcu7t5v0__antenna
XFILLER_27_208 vdd vss gf180mcu_fd_sc_mcu7t5v0__fillcap_4
XFILLER_10_108 vdd vss gf180mcu_fd_sc_mcu7t5v0__fillcap_64
XFILLER_12_37 vdd vss gf180mcu_fd_sc_mcu7t5v0__fillcap_64
XFILLER_2_318 vdd vss gf180mcu_fd_sc_mcu7t5v0__fill_1
XFILLER_53_66 vdd vss gf180mcu_fd_sc_mcu7t5v0__fillcap_4
XFILLER_1_373 vdd vss gf180mcu_fd_sc_mcu7t5v0__fillcap_8
XFILLER_48_33 vdd vss gf180mcu_fd_sc_mcu7t5v0__fill_2
XFILLER_54_380 vdd vss gf180mcu_fd_sc_mcu7t5v0__fill_2
XFILLER_46_314 vdd vss gf180mcu_fd_sc_mcu7t5v0__fillcap_4
XFILLER_14_244 vdd vss gf180mcu_fd_sc_mcu7t5v0__fillcap_4
XFILLER_13_80 vdd vss gf180mcu_fd_sc_mcu7t5v0__fill_1
X_186_ _021_ clknet_2_3__leaf_clock net18 vdd vss gf180mcu_fd_sc_mcu7t5v0__dffq_1
XFILLER_49_141 vdd vss gf180mcu_fd_sc_mcu7t5v0__fill_1
XFILLER_20_247 vdd vss gf180mcu_fd_sc_mcu7t5v0__fill_1
XFILLER_28_314 vdd vss gf180mcu_fd_sc_mcu7t5v0__fillcap_4
XFILLER_28_358 vdd vss gf180mcu_fd_sc_mcu7t5v0__fillcap_8
XFILLER_51_350 vdd vss gf180mcu_fd_sc_mcu7t5v0__fillcap_4
XANTENNA__169__CLK clknet_2_0__leaf_clock vdd vss gf180mcu_fd_sc_mcu7t5v0__antenna
XFILLER_50_34 vdd vss gf180mcu_fd_sc_mcu7t5v0__fill_1
X_169_ _004_ clknet_2_0__leaf_clock net31 vdd vss gf180mcu_fd_sc_mcu7t5v0__dffq_1
XFILLER_27_2 vdd vss gf180mcu_fd_sc_mcu7t5v0__fillcap_64
XFILLER_37_144 vdd vss gf180mcu_fd_sc_mcu7t5v0__fillcap_64
XFILLER_33_350 vdd vss gf180mcu_fd_sc_mcu7t5v0__fillcap_4
XFILLER_20_37 vdd vss gf180mcu_fd_sc_mcu7t5v0__fillcap_64
XFILLER_24_361 vdd vss gf180mcu_fd_sc_mcu7t5v0__fillcap_8
XFILLER_3_298 vdd vss gf180mcu_fd_sc_mcu7t5v0__fill_2
XTAP_309 vdd vss gf180mcu_fd_sc_mcu7t5v0__filltie
XFILLER_19_144 vdd vss gf180mcu_fd_sc_mcu7t5v0__fillcap_64
XFILLER_15_350 vdd vss gf180mcu_fd_sc_mcu7t5v0__fillcap_4
XFILLER_15_372 vdd vss gf180mcu_fd_sc_mcu7t5v0__fillcap_8
XFILLER_21_386 vdd vss gf180mcu_fd_sc_mcu7t5v0__fill_2
Xoutput25 net25 data_out[28] vdd vss gf180mcu_fd_sc_mcu7t5v0__clkbuf_3
Xoutput36 net36 data_out[9] vdd vss gf180mcu_fd_sc_mcu7t5v0__clkbuf_3
XFILLER_31_69 vdd vss gf180mcu_fd_sc_mcu7t5v0__fill_2
Xoutput14 net14 data_out[18] vdd vss gf180mcu_fd_sc_mcu7t5v0__clkbuf_3
XFILLER_0_279 vdd vss gf180mcu_fd_sc_mcu7t5v0__fill_1
XFILLER_8_379 vdd vss gf180mcu_fd_sc_mcu7t5v0__fill_2
XFILLER_8_357 vdd vss gf180mcu_fd_sc_mcu7t5v0__fillcap_16
XTAP_139 vdd vss gf180mcu_fd_sc_mcu7t5v0__filltie
XTAP_128 vdd vss gf180mcu_fd_sc_mcu7t5v0__filltie
XTAP_117 vdd vss gf180mcu_fd_sc_mcu7t5v0__filltie
XFILLER_54_209 vdd vss gf180mcu_fd_sc_mcu7t5v0__fill_1
XFILLER_50_415 vdd vss gf180mcu_fd_sc_mcu7t5v0__fillcap_4
XFILLER_47_283 vdd vss gf180mcu_fd_sc_mcu7t5v0__fill_1
XPHY_0 vdd vss gf180mcu_fd_sc_mcu7t5v0__endcap
XFILLER_30_172 vdd vss gf180mcu_fd_sc_mcu7t5v0__fillcap_4
XFILLER_38_250 vdd vss gf180mcu_fd_sc_mcu7t5v0__fillcap_16
XFILLER_53_286 vdd vss gf180mcu_fd_sc_mcu7t5v0__fillcap_64
XFILLER_29_283 vdd vss gf180mcu_fd_sc_mcu7t5v0__fill_1
XFILLER_12_172 vdd vss gf180mcu_fd_sc_mcu7t5v0__fillcap_4
XFILLER_8_176 vdd vss gf180mcu_fd_sc_mcu7t5v0__fill_1
XFILLER_35_286 vdd vss gf180mcu_fd_sc_mcu7t5v0__fillcap_64
XFILLER_41_212 vdd vss gf180mcu_fd_sc_mcu7t5v0__fill_1
XFILLER_49_389 vdd vss gf180mcu_fd_sc_mcu7t5v0__fillcap_16
XFILLER_1_352 vdd vss gf180mcu_fd_sc_mcu7t5v0__fill_2
XFILLER_17_286 vdd vss gf180mcu_fd_sc_mcu7t5v0__fillcap_32
XFILLER_20_407 vdd vss gf180mcu_fd_sc_mcu7t5v0__fillcap_8
XFILLER_11_407 vdd vss gf180mcu_fd_sc_mcu7t5v0__fillcap_8
XFILLER_23_212 vdd vss gf180mcu_fd_sc_mcu7t5v0__fill_1
XFILLER_2_105 vdd vss gf180mcu_fd_sc_mcu7t5v0__fill_1
XANTENNA__110__I _063_ vdd vss gf180mcu_fd_sc_mcu7t5v0__antenna
XFILLER_0_19 vdd vss gf180mcu_fd_sc_mcu7t5v0__fillcap_16
XFILLER_6_411 vdd vss gf180mcu_fd_sc_mcu7t5v0__fillcap_8
XFILLER_13_70 vdd vss gf180mcu_fd_sc_mcu7t5v0__fill_1
X_185_ _020_ clknet_2_2__leaf_clock net17 vdd vss gf180mcu_fd_sc_mcu7t5v0__dffq_1
XFILLER_52_318 vdd vss gf180mcu_fd_sc_mcu7t5v0__fill_1
XFILLER_45_381 vdd vss gf180mcu_fd_sc_mcu7t5v0__fillcap_4
XFILLER_43_318 vdd vss gf180mcu_fd_sc_mcu7t5v0__fillcap_16
XFILLER_18_37 vdd vss gf180mcu_fd_sc_mcu7t5v0__fillcap_64
XFILLER_36_392 vdd vss gf180mcu_fd_sc_mcu7t5v0__fill_1
XFILLER_7_208 vdd vss gf180mcu_fd_sc_mcu7t5v0__fillcap_4
XFILLER_11_215 vdd vss gf180mcu_fd_sc_mcu7t5v0__fillcap_64
XFILLER_46_101 vdd vss gf180mcu_fd_sc_mcu7t5v0__fillcap_4
XFILLER_42_340 vdd vss gf180mcu_fd_sc_mcu7t5v0__fill_2
XFILLER_34_318 vdd vss gf180mcu_fd_sc_mcu7t5v0__fill_1
X_168_ _003_ clknet_2_0__leaf_clock net30 vdd vss gf180mcu_fd_sc_mcu7t5v0__dffq_1
XFILLER_6_241 vdd vss gf180mcu_fd_sc_mcu7t5v0__fillcap_4
X_099_ net33 net34 _069_ _073_ vdd vss gf180mcu_fd_sc_mcu7t5v0__mux2_2
XFILLER_1_73 vdd vss gf180mcu_fd_sc_mcu7t5v0__fillcap_64
XFILLER_18_392 vdd vss gf180mcu_fd_sc_mcu7t5v0__fill_1
XFILLER_33_373 vdd vss gf180mcu_fd_sc_mcu7t5v0__fill_1
XFILLER_28_101 vdd vss gf180mcu_fd_sc_mcu7t5v0__fillcap_4
XFILLER_43_137 vdd vss gf180mcu_fd_sc_mcu7t5v0__fillcap_4
XFILLER_16_318 vdd vss gf180mcu_fd_sc_mcu7t5v0__fill_1
XFILLER_24_373 vdd vss gf180mcu_fd_sc_mcu7t5v0__fill_2
XFILLER_30_321 vdd vss gf180mcu_fd_sc_mcu7t5v0__fill_1
XFILLER_30_376 vdd vss gf180mcu_fd_sc_mcu7t5v0__fillcap_8
XANTENNA__159__CLK clknet_2_3__leaf_clock vdd vss gf180mcu_fd_sc_mcu7t5v0__antenna
XFILLER_53_402 vdd vss gf180mcu_fd_sc_mcu7t5v0__fill_2
XFILLER_25_137 vdd vss gf180mcu_fd_sc_mcu7t5v0__fillcap_4
XFILLER_21_354 vdd vss gf180mcu_fd_sc_mcu7t5v0__fill_1
XFILLER_21_376 vdd vss gf180mcu_fd_sc_mcu7t5v0__fill_2
Xoutput26 net26 data_out[29] vdd vss gf180mcu_fd_sc_mcu7t5v0__clkbuf_3
Xoutput37 net37 miso vdd vss gf180mcu_fd_sc_mcu7t5v0__clkbuf_3
XFILLER_0_247 vdd vss gf180mcu_fd_sc_mcu7t5v0__fillcap_32
Xoutput15 net15 data_out[19] vdd vss gf180mcu_fd_sc_mcu7t5v0__clkbuf_3
XFILLER_8_314 vdd vss gf180mcu_fd_sc_mcu7t5v0__fillcap_4
XFILLER_12_321 vdd vss gf180mcu_fd_sc_mcu7t5v0__fillcap_64
XFILLER_21_70 vdd vss gf180mcu_fd_sc_mcu7t5v0__fill_1
XTAP_129 vdd vss gf180mcu_fd_sc_mcu7t5v0__filltie
XTAP_118 vdd vss gf180mcu_fd_sc_mcu7t5v0__filltie
XPHY_1 vdd vss gf180mcu_fd_sc_mcu7t5v0__endcap
XFILLER_15_170 vdd vss gf180mcu_fd_sc_mcu7t5v0__fillcap_4
XFILLER_26_37 vdd vss gf180mcu_fd_sc_mcu7t5v0__fillcap_64
XFILLER_38_295 vdd vss gf180mcu_fd_sc_mcu7t5v0__fill_2
XFILLER_13_118 vdd vss gf180mcu_fd_sc_mcu7t5v0__fillcap_16
XFILLER_44_243 vdd vss gf180mcu_fd_sc_mcu7t5v0__fillcap_4
XFILLER_32_416 vdd vss gf180mcu_fd_sc_mcu7t5v0__fillcap_4
XFILLER_23_416 vdd vss gf180mcu_fd_sc_mcu7t5v0__fillcap_4
XANTENNA__134__S _044_ vdd vss gf180mcu_fd_sc_mcu7t5v0__antenna
XFILLER_14_416 vdd vss gf180mcu_fd_sc_mcu7t5v0__fillcap_4
XFILLER_26_243 vdd vss gf180mcu_fd_sc_mcu7t5v0__fillcap_4
XFILLER_41_279 vdd vss gf180mcu_fd_sc_mcu7t5v0__fill_1
XFILLER_49_357 vdd vss gf180mcu_fd_sc_mcu7t5v0__fillcap_32
XFILLER_20_419 vdd vss gf180mcu_fd_sc_mcu7t5v0__fill_1
XFILLER_11_419 vdd vss gf180mcu_fd_sc_mcu7t5v0__fill_1
XFILLER_23_279 vdd vss gf180mcu_fd_sc_mcu7t5v0__fillcap_4
XTAP_290 vdd vss gf180mcu_fd_sc_mcu7t5v0__filltie
XANTENNA_output26_I net26 vdd vss gf180mcu_fd_sc_mcu7t5v0__antenna
X_184_ _019_ clknet_2_2__leaf_clock net15 vdd vss gf180mcu_fd_sc_mcu7t5v0__dffq_1
XANTENNA__192__CLK clknet_2_3__leaf_clock vdd vss gf180mcu_fd_sc_mcu7t5v0__antenna
XFILLER_9_283 vdd vss gf180mcu_fd_sc_mcu7t5v0__fill_1
XFILLER_34_37 vdd vss gf180mcu_fd_sc_mcu7t5v0__fillcap_64
XFILLER_3_415 vdd vss gf180mcu_fd_sc_mcu7t5v0__fillcap_4
XFILLER_1_5 vdd vss gf180mcu_fd_sc_mcu7t5v0__fillcap_64
XFILLER_46_179 vdd vss gf180mcu_fd_sc_mcu7t5v0__fillcap_64
XFILLER_42_374 vdd vss gf180mcu_fd_sc_mcu7t5v0__fill_2
XFILLER_27_382 vdd vss gf180mcu_fd_sc_mcu7t5v0__fill_2
X_167_ _002_ clknet_2_0__leaf_clock net27 vdd vss gf180mcu_fd_sc_mcu7t5v0__dffq_1
X_098_ _072_ _006_ vdd vss gf180mcu_fd_sc_mcu7t5v0__clkbuf_1
XFILLER_52_105 vdd vss gf180mcu_fd_sc_mcu7t5v0__fill_1
XANTENNA__206__I net29 vdd vss gf180mcu_fd_sc_mcu7t5v0__antenna
XFILLER_0_418 vdd vss gf180mcu_fd_sc_mcu7t5v0__fill_2
XFILLER_28_179 vdd vss gf180mcu_fd_sc_mcu7t5v0__fillcap_64
XFILLER_24_341 vdd vss gf180mcu_fd_sc_mcu7t5v0__fill_2
XFILLER_3_212 vdd vss gf180mcu_fd_sc_mcu7t5v0__fill_1
XFILLER_19_70 vdd vss gf180mcu_fd_sc_mcu7t5v0__fill_1
XFILLER_34_105 vdd vss gf180mcu_fd_sc_mcu7t5v0__fill_1
XFILLER_30_388 vdd vss gf180mcu_fd_sc_mcu7t5v0__fill_2
XFILLER_32_2 vdd vss gf180mcu_fd_sc_mcu7t5v0__fill_1
XFILLER_53_414 vdd vss gf180mcu_fd_sc_mcu7t5v0__fillcap_4
XFILLER_38_411 vdd vss gf180mcu_fd_sc_mcu7t5v0__fill_2
XFILLER_40_108 vdd vss gf180mcu_fd_sc_mcu7t5v0__fillcap_64
Xoutput27 net27 data_out[2] vdd vss gf180mcu_fd_sc_mcu7t5v0__clkbuf_3
Xoutput16 net16 data_out[1] vdd vss gf180mcu_fd_sc_mcu7t5v0__clkbuf_3
XPHY_100 vdd vss gf180mcu_fd_sc_mcu7t5v0__endcap
XFILLER_16_105 vdd vss gf180mcu_fd_sc_mcu7t5v0__fill_1
XFILLER_8_326 vdd vss gf180mcu_fd_sc_mcu7t5v0__fill_2
XTAP_119 vdd vss gf180mcu_fd_sc_mcu7t5v0__filltie
XFILLER_39_208 vdd vss gf180mcu_fd_sc_mcu7t5v0__fillcap_4
XPHY_2 vdd vss gf180mcu_fd_sc_mcu7t5v0__endcap
XFILLER_15_160 vdd vss gf180mcu_fd_sc_mcu7t5v0__fillcap_8
XFILLER_22_108 vdd vss gf180mcu_fd_sc_mcu7t5v0__fillcap_64