*SPEF "ieee 1481-1999"
*DESIGN "clock_mux"
*DATE "11:11:11 Fri 11 11, 1111"
*VENDOR "OpenRCX"
*PROGRAM "Parallel Extraction"
*VERSION "1.0"
*DESIGN_FLOW "NAME_SCOPE LOCAL" "PIN_CAP NONE"
*DIVIDER /
*DELIMITER :
*BUS_DELIMITER []
*T_UNIT 1 NS
*C_UNIT 1 PF
*R_UNIT 1 OHM
*L_UNIT 1 HENRY

*NAME_MAP
*1 clock_out_a
*2 clock_out_b
*3 clock_out_c
*4 core_clock
*5 io_clock
*6 la_oenb
*9 _0_
*10 clknet_0_core_clock
*11 clknet_0_net2
*12 clknet_1_0__leaf_core_clock
*13 clknet_1_0__leaf_net2
*14 clknet_1_1__leaf_core_clock
*15 clknet_1_1__leaf_net2
*16 net1
*17 net2
*18 net3
*19 net4
*20 sel_reg
*21 ANTENNA__1__I1
*22 ANTENNA__3__D
*23 ANTENNA__4__I
*24 ANTENNA_clkbuf_0_core_clock_I
*25 ANTENNA_input1_I
*26 ANTENNA_output2_I
*27 ANTENNA_output4_I
*28 FILLER_0_104
*29 FILLER_0_107
*30 FILLER_0_139
*31 FILLER_0_142
*32 FILLER_0_174
*33 FILLER_0_177
*34 FILLER_0_2
*35 FILLER_0_209
*36 FILLER_0_212
*37 FILLER_0_244
*38 FILLER_0_247
*39 FILLER_0_279
*40 FILLER_0_282
*41 FILLER_0_314
*42 FILLER_0_317
*43 FILLER_0_321
*44 FILLER_0_329
*45 FILLER_0_34
*46 FILLER_0_345
*47 FILLER_0_349
*48 FILLER_0_352
*49 FILLER_0_37
*50 FILLER_0_384
*51 FILLER_0_387
*52 FILLER_0_419
*53 FILLER_0_69
*54 FILLER_0_72
*55 FILLER_10_101
*56 FILLER_10_105
*57 FILLER_10_108
*58 FILLER_10_172
*59 FILLER_10_176
*60 FILLER_10_179
*61 FILLER_10_2
*62 FILLER_10_243
*63 FILLER_10_247
*64 FILLER_10_250
*65 FILLER_10_314
*66 FILLER_10_318
*67 FILLER_10_321
*68 FILLER_10_34
*69 FILLER_10_37
*70 FILLER_10_385
*71 FILLER_10_389
*72 FILLER_10_392
*73 FILLER_10_408
*74 FILLER_10_416
*75 FILLER_11_137
*76 FILLER_11_141
*77 FILLER_11_144
*78 FILLER_11_2
*79 FILLER_11_208
*80 FILLER_11_212
*81 FILLER_11_215
*82 FILLER_11_279
*83 FILLER_11_283
*84 FILLER_11_286
*85 FILLER_11_350
*86 FILLER_11_354
*87 FILLER_11_357
*88 FILLER_11_389
*89 FILLER_11_405
*90 FILLER_11_413
*91 FILLER_11_417
*92 FILLER_11_419
*93 FILLER_11_53
*94 FILLER_11_69
*95 FILLER_11_73
*96 FILLER_12_101
*97 FILLER_12_105
*98 FILLER_12_108
*99 FILLER_12_172
*100 FILLER_12_176
*101 FILLER_12_179
*102 FILLER_12_2
*103 FILLER_12_243
*104 FILLER_12_247
*105 FILLER_12_250
*106 FILLER_12_314
*107 FILLER_12_318
*108 FILLER_12_321
*109 FILLER_12_34
*110 FILLER_12_37
*111 FILLER_12_385
*112 FILLER_12_389
*113 FILLER_12_392
*114 FILLER_12_408
*115 FILLER_12_416
*116 FILLER_13_137
*117 FILLER_13_141
*118 FILLER_13_144
*119 FILLER_13_2
*120 FILLER_13_208
*121 FILLER_13_212
*122 FILLER_13_215
*123 FILLER_13_279
*124 FILLER_13_283
*125 FILLER_13_286
*126 FILLER_13_350
*127 FILLER_13_354
*128 FILLER_13_357
*129 FILLER_13_389
*130 FILLER_13_405
*131 FILLER_13_413
*132 FILLER_13_417
*133 FILLER_13_419
*134 FILLER_13_66
*135 FILLER_13_70
*136 FILLER_13_73
*137 FILLER_14_101
*138 FILLER_14_105
*139 FILLER_14_108
*140 FILLER_14_172
*141 FILLER_14_176
*142 FILLER_14_179
*143 FILLER_14_2
*144 FILLER_14_243
*145 FILLER_14_247
*146 FILLER_14_250
*147 FILLER_14_314
*148 FILLER_14_318
*149 FILLER_14_321
*150 FILLER_14_34
*151 FILLER_14_37
*152 FILLER_14_385
*153 FILLER_14_389
*154 FILLER_14_392
*155 FILLER_14_408
*156 FILLER_14_416
*157 FILLER_15_137
*158 FILLER_15_141
*159 FILLER_15_144
*160 FILLER_15_2
*161 FILLER_15_208
*162 FILLER_15_212
*163 FILLER_15_215
*164 FILLER_15_279
*165 FILLER_15_283
*166 FILLER_15_286
*167 FILLER_15_350
*168 FILLER_15_354
*169 FILLER_15_357
*170 FILLER_15_389
*171 FILLER_15_405
*172 FILLER_15_413
*173 FILLER_15_417
*174 FILLER_15_419
*175 FILLER_15_66
*176 FILLER_15_70
*177 FILLER_15_73
*178 FILLER_16_101
*179 FILLER_16_105
*180 FILLER_16_108
*181 FILLER_16_172
*182 FILLER_16_176
*183 FILLER_16_179
*184 FILLER_16_2
*185 FILLER_16_243
*186 FILLER_16_247
*187 FILLER_16_250
*188 FILLER_16_314
*189 FILLER_16_318
*190 FILLER_16_321
*191 FILLER_16_34
*192 FILLER_16_37
*193 FILLER_16_385
*194 FILLER_16_389
*195 FILLER_16_392
*196 FILLER_16_408
*197 FILLER_16_416
*198 FILLER_17_10
*199 FILLER_17_137
*200 FILLER_17_141
*201 FILLER_17_144
*202 FILLER_17_2
*203 FILLER_17_208
*204 FILLER_17_212
*205 FILLER_17_215
*206 FILLER_17_279
*207 FILLER_17_283
*208 FILLER_17_286
*209 FILLER_17_350
*210 FILLER_17_354
*211 FILLER_17_357
*212 FILLER_17_389
*213 FILLER_17_405
*214 FILLER_17_413
*215 FILLER_17_417
*216 FILLER_17_419
*217 FILLER_17_64
*218 FILLER_17_68
*219 FILLER_17_70
*220 FILLER_17_73
*221 FILLER_18_101
*222 FILLER_18_105
*223 FILLER_18_108
*224 FILLER_18_172
*225 FILLER_18_176
*226 FILLER_18_179
*227 FILLER_18_2
*228 FILLER_18_243
*229 FILLER_18_247
*230 FILLER_18_250
*231 FILLER_18_314
*232 FILLER_18_318
*233 FILLER_18_321
*234 FILLER_18_34
*235 FILLER_18_37
*236 FILLER_18_385
*237 FILLER_18_389
*238 FILLER_18_392
*239 FILLER_18_408
*240 FILLER_18_416
*241 FILLER_19_137
*242 FILLER_19_141
*243 FILLER_19_144
*244 FILLER_19_2
*245 FILLER_19_208
*246 FILLER_19_212
*247 FILLER_19_215
*248 FILLER_19_279
*249 FILLER_19_283
*250 FILLER_19_286
*251 FILLER_19_350
*252 FILLER_19_354
*253 FILLER_19_357
*254 FILLER_19_389
*255 FILLER_19_405
*256 FILLER_19_413
*257 FILLER_19_417
*258 FILLER_19_419
*259 FILLER_19_53
*260 FILLER_19_69
*261 FILLER_19_73
*262 FILLER_1_137
*263 FILLER_1_141
*264 FILLER_1_144
*265 FILLER_1_2
*266 FILLER_1_208
*267 FILLER_1_212
*268 FILLER_1_215
*269 FILLER_1_279
*270 FILLER_1_283
*271 FILLER_1_286
*272 FILLER_1_350
*273 FILLER_1_354
*274 FILLER_1_357
*275 FILLER_1_389
*276 FILLER_1_405
*277 FILLER_1_413
*278 FILLER_1_417
*279 FILLER_1_419
*280 FILLER_1_66
*281 FILLER_1_70
*282 FILLER_1_73
*283 FILLER_20_101
*284 FILLER_20_105
*285 FILLER_20_108
*286 FILLER_20_174
*287 FILLER_20_176
*288 FILLER_20_179
*289 FILLER_20_2
*290 FILLER_20_243
*291 FILLER_20_247
*292 FILLER_20_250
*293 FILLER_20_314
*294 FILLER_20_318
*295 FILLER_20_321
*296 FILLER_20_34
*297 FILLER_20_37
*298 FILLER_20_385
*299 FILLER_20_389
*300 FILLER_20_392
*301 FILLER_20_408
*302 FILLER_20_416
*303 FILLER_21_137
*304 FILLER_21_141
*305 FILLER_21_144
*306 FILLER_21_2
*307 FILLER_21_208
*308 FILLER_21_212
*309 FILLER_21_215
*310 FILLER_21_279
*311 FILLER_21_283
*312 FILLER_21_286
*313 FILLER_21_350
*314 FILLER_21_354
*315 FILLER_21_357
*316 FILLER_21_389
*317 FILLER_21_405
*318 FILLER_21_413
*319 FILLER_21_417
*320 FILLER_21_419
*321 FILLER_21_66
*322 FILLER_21_70
*323 FILLER_21_73
*324 FILLER_22_101
*325 FILLER_22_105
*326 FILLER_22_108
*327 FILLER_22_172
*328 FILLER_22_176
*329 FILLER_22_179
*330 FILLER_22_2
*331 FILLER_22_243
*332 FILLER_22_247
*333 FILLER_22_250
*334 FILLER_22_314
*335 FILLER_22_318
*336 FILLER_22_321
*337 FILLER_22_34
*338 FILLER_22_37
*339 FILLER_22_385
*340 FILLER_22_389
*341 FILLER_22_392
*342 FILLER_22_408
*343 FILLER_22_416
*344 FILLER_23_130
*345 FILLER_23_134
*346 FILLER_23_144
*347 FILLER_23_2
*348 FILLER_23_208
*349 FILLER_23_212
*350 FILLER_23_215
*351 FILLER_23_279
*352 FILLER_23_283
*353 FILLER_23_286
*354 FILLER_23_350
*355 FILLER_23_354
*356 FILLER_23_357
*357 FILLER_23_389
*358 FILLER_23_405
*359 FILLER_23_413
*360 FILLER_23_417
*361 FILLER_23_419
*362 FILLER_23_66
*363 FILLER_23_70
*364 FILLER_23_73
*365 FILLER_23_89
*366 FILLER_23_97
*367 FILLER_24_105
*368 FILLER_24_108
*369 FILLER_24_111
*370 FILLER_24_113
*371 FILLER_24_116
*372 FILLER_24_168
*373 FILLER_24_176
*374 FILLER_24_179
*375 FILLER_24_2
*376 FILLER_24_243
*377 FILLER_24_247
*378 FILLER_24_250
*379 FILLER_24_314
*380 FILLER_24_318
*381 FILLER_24_321
*382 FILLER_24_34
*383 FILLER_24_37
*384 FILLER_24_385
*385 FILLER_24_389
*386 FILLER_24_392
*387 FILLER_24_408
*388 FILLER_24_416
*389 FILLER_24_53
*390 FILLER_24_55
*391 FILLER_24_62
*392 FILLER_24_78
*393 FILLER_24_86
*394 FILLER_25_140
*395 FILLER_25_144
*396 FILLER_25_2
*397 FILLER_25_208
*398 FILLER_25_212
*399 FILLER_25_215
*400 FILLER_25_279
*401 FILLER_25_283
*402 FILLER_25_286
*403 FILLER_25_350
*404 FILLER_25_354
*405 FILLER_25_357
*406 FILLER_25_389
*407 FILLER_25_405
*408 FILLER_25_413
*409 FILLER_25_417
*410 FILLER_25_419
*411 FILLER_25_66
*412 FILLER_25_70
*413 FILLER_25_73
*414 FILLER_25_89
*415 FILLER_26_101
*416 FILLER_26_105
*417 FILLER_26_108
*418 FILLER_26_172
*419 FILLER_26_176
*420 FILLER_26_179
*421 FILLER_26_2
*422 FILLER_26_243
*423 FILLER_26_247
*424 FILLER_26_250
*425 FILLER_26_314
*426 FILLER_26_318
*427 FILLER_26_321
*428 FILLER_26_34
*429 FILLER_26_37
*430 FILLER_26_385
*431 FILLER_26_389
*432 FILLER_26_392
*433 FILLER_26_408
*434 FILLER_26_416
*435 FILLER_27_10
*436 FILLER_27_137
*437 FILLER_27_14
*438 FILLER_27_141
*439 FILLER_27_144
*440 FILLER_27_2
*441 FILLER_27_208
*442 FILLER_27_212
*443 FILLER_27_215
*444 FILLER_27_22
*445 FILLER_27_26
*446 FILLER_27_279
*447 FILLER_27_283
*448 FILLER_27_286
*449 FILLER_27_350
*450 FILLER_27_354
*451 FILLER_27_357
*452 FILLER_27_389
*453 FILLER_27_405
*454 FILLER_27_413
*455 FILLER_27_417
*456 FILLER_27_419
*457 FILLER_27_58
*458 FILLER_27_66
*459 FILLER_27_70
*460 FILLER_27_73
*461 FILLER_28_101
*462 FILLER_28_105
*463 FILLER_28_108
*464 FILLER_28_13
*465 FILLER_28_15
*466 FILLER_28_172
*467 FILLER_28_176
*468 FILLER_28_179
*469 FILLER_28_2
*470 FILLER_28_22
*471 FILLER_28_243
*472 FILLER_28_247
*473 FILLER_28_250
*474 FILLER_28_30
*475 FILLER_28_314
*476 FILLER_28_318
*477 FILLER_28_321
*478 FILLER_28_34
*479 FILLER_28_37
*480 FILLER_28_385
*481 FILLER_28_389
*482 FILLER_28_392
*483 FILLER_28_408
*484 FILLER_28_416
*485 FILLER_28_9
*486 FILLER_29_137
*487 FILLER_29_141
*488 FILLER_29_144
*489 FILLER_29_2
*490 FILLER_29_208
*491 FILLER_29_212
*492 FILLER_29_215
*493 FILLER_29_279
*494 FILLER_29_283
*495 FILLER_29_286
*496 FILLER_29_350
*497 FILLER_29_354
*498 FILLER_29_357
*499 FILLER_29_389
*500 FILLER_29_405
*501 FILLER_29_413
*502 FILLER_29_417
*503 FILLER_29_419
*504 FILLER_29_66
*505 FILLER_29_70
*506 FILLER_29_73
*507 FILLER_2_101
*508 FILLER_2_105
*509 FILLER_2_108
*510 FILLER_2_172
*511 FILLER_2_176
*512 FILLER_2_179
*513 FILLER_2_2
*514 FILLER_2_243
*515 FILLER_2_247
*516 FILLER_2_250
*517 FILLER_2_314
*518 FILLER_2_318
*519 FILLER_2_321
*520 FILLER_2_34
*521 FILLER_2_37
*522 FILLER_2_385
*523 FILLER_2_389
*524 FILLER_2_392
*525 FILLER_2_408
*526 FILLER_2_416
*527 FILLER_30_101
*528 FILLER_30_105
*529 FILLER_30_108
*530 FILLER_30_172
*531 FILLER_30_176
*532 FILLER_30_179
*533 FILLER_30_2
*534 FILLER_30_243
*535 FILLER_30_247
*536 FILLER_30_250
*537 FILLER_30_314
*538 FILLER_30_318
*539 FILLER_30_321
*540 FILLER_30_34
*541 FILLER_30_37
*542 FILLER_30_385
*543 FILLER_30_389
*544 FILLER_30_392
*545 FILLER_30_408
*546 FILLER_30_416
*547 FILLER_31_137
*548 FILLER_31_141
*549 FILLER_31_144
*550 FILLER_31_2
*551 FILLER_31_208
*552 FILLER_31_212
*553 FILLER_31_215
*554 FILLER_31_279
*555 FILLER_31_283
*556 FILLER_31_286
*557 FILLER_31_350
*558 FILLER_31_354
*559 FILLER_31_357
*560 FILLER_31_389
*561 FILLER_31_405
*562 FILLER_31_413
*563 FILLER_31_417
*564 FILLER_31_419
*565 FILLER_31_66
*566 FILLER_31_70
*567 FILLER_31_73
*568 FILLER_32_101
*569 FILLER_32_105
*570 FILLER_32_108
*571 FILLER_32_172
*572 FILLER_32_176
*573 FILLER_32_179
*574 FILLER_32_2
*575 FILLER_32_243
*576 FILLER_32_247
*577 FILLER_32_250
*578 FILLER_32_314
*579 FILLER_32_318
*580 FILLER_32_321
*581 FILLER_32_34
*582 FILLER_32_37
*583 FILLER_32_385
*584 FILLER_32_389
*585 FILLER_32_392
*586 FILLER_32_408
*587 FILLER_32_416
*588 FILLER_33_137
*589 FILLER_33_141
*590 FILLER_33_144
*591 FILLER_33_2
*592 FILLER_33_208
*593 FILLER_33_212
*594 FILLER_33_215
*595 FILLER_33_279
*596 FILLER_33_283
*597 FILLER_33_286
*598 FILLER_33_350
*599 FILLER_33_354
*600 FILLER_33_357
*601 FILLER_33_389
*602 FILLER_33_405
*603 FILLER_33_413
*604 FILLER_33_417
*605 FILLER_33_419
*606 FILLER_33_66
*607 FILLER_33_70
*608 FILLER_33_73
*609 FILLER_34_101
*610 FILLER_34_105
*611 FILLER_34_108
*612 FILLER_34_172
*613 FILLER_34_176
*614 FILLER_34_179
*615 FILLER_34_2
*616 FILLER_34_243
*617 FILLER_34_247
*618 FILLER_34_250
*619 FILLER_34_314
*620 FILLER_34_318
*621 FILLER_34_321
*622 FILLER_34_34
*623 FILLER_34_37
*624 FILLER_34_385
*625 FILLER_34_389
*626 FILLER_34_392
*627 FILLER_34_408
*628 FILLER_34_416
*629 FILLER_35_137
*630 FILLER_35_141
*631 FILLER_35_144
*632 FILLER_35_2
*633 FILLER_35_208
*634 FILLER_35_212
*635 FILLER_35_215
*636 FILLER_35_279
*637 FILLER_35_283
*638 FILLER_35_286
*639 FILLER_35_350
*640 FILLER_35_354
*641 FILLER_35_357
*642 FILLER_35_389
*643 FILLER_35_405
*644 FILLER_35_413
*645 FILLER_35_417
*646 FILLER_35_419
*647 FILLER_35_66
*648 FILLER_35_70
*649 FILLER_35_73
*650 FILLER_36_101
*651 FILLER_36_105
*652 FILLER_36_108
*653 FILLER_36_172
*654 FILLER_36_176
*655 FILLER_36_179
*656 FILLER_36_2
*657 FILLER_36_243
*658 FILLER_36_247
*659 FILLER_36_250
*660 FILLER_36_314
*661 FILLER_36_318
*662 FILLER_36_321
*663 FILLER_36_34
*664 FILLER_36_37
*665 FILLER_36_385
*666 FILLER_36_389
*667 FILLER_36_392
*668 FILLER_36_408
*669 FILLER_36_416
*670 FILLER_37_137
*671 FILLER_37_141
*672 FILLER_37_144
*673 FILLER_37_2
*674 FILLER_37_208
*675 FILLER_37_212
*676 FILLER_37_215
*677 FILLER_37_279
*678 FILLER_37_283
*679 FILLER_37_286
*680 FILLER_37_350
*681 FILLER_37_354
*682 FILLER_37_357
*683 FILLER_37_389
*684 FILLER_37_405
*685 FILLER_37_413
*686 FILLER_37_417
*687 FILLER_37_419
*688 FILLER_37_66
*689 FILLER_37_70
*690 FILLER_37_73
*691 FILLER_38_101
*692 FILLER_38_105
*693 FILLER_38_108
*694 FILLER_38_172
*695 FILLER_38_176
*696 FILLER_38_179
*697 FILLER_38_2
*698 FILLER_38_243
*699 FILLER_38_247
*700 FILLER_38_250
*701 FILLER_38_314
*702 FILLER_38_318
*703 FILLER_38_321
*704 FILLER_38_34
*705 FILLER_38_37
*706 FILLER_38_385
*707 FILLER_38_389
*708 FILLER_38_392
*709 FILLER_38_408
*710 FILLER_38_416
*711 FILLER_39_137
*712 FILLER_39_141
*713 FILLER_39_144
*714 FILLER_39_2
*715 FILLER_39_208
*716 FILLER_39_212
*717 FILLER_39_215
*718 FILLER_39_279
*719 FILLER_39_283
*720 FILLER_39_286
*721 FILLER_39_350
*722 FILLER_39_354
*723 FILLER_39_357
*724 FILLER_39_389
*725 FILLER_39_405
*726 FILLER_39_413
*727 FILLER_39_417
*728 FILLER_39_419
*729 FILLER_39_66
*730 FILLER_39_70
*731 FILLER_39_73
*732 FILLER_3_137
*733 FILLER_3_141
*734 FILLER_3_144
*735 FILLER_3_2
*736 FILLER_3_208
*737 FILLER_3_212
*738 FILLER_3_215
*739 FILLER_3_279
*740 FILLER_3_283
*741 FILLER_3_286
*742 FILLER_3_350
*743 FILLER_3_354
*744 FILLER_3_357
*745 FILLER_3_389
*746 FILLER_3_405
*747 FILLER_3_413
*748 FILLER_3_417
*749 FILLER_3_419
*750 FILLER_3_66
*751 FILLER_3_70
*752 FILLER_3_73
*753 FILLER_40_101
*754 FILLER_40_105
*755 FILLER_40_108
*756 FILLER_40_172
*757 FILLER_40_176
*758 FILLER_40_179
*759 FILLER_40_2
*760 FILLER_40_243
*761 FILLER_40_247
*762 FILLER_40_250
*763 FILLER_40_314
*764 FILLER_40_318
*765 FILLER_40_321
*766 FILLER_40_34
*767 FILLER_40_37
*768 FILLER_40_385
*769 FILLER_40_389
*770 FILLER_40_392
*771 FILLER_40_408
*772 FILLER_40_416
*773 FILLER_41_137
*774 FILLER_41_141
*775 FILLER_41_144
*776 FILLER_41_2
*777 FILLER_41_208
*778 FILLER_41_212
*779 FILLER_41_215
*780 FILLER_41_279
*781 FILLER_41_283
*782 FILLER_41_286
*783 FILLER_41_350
*784 FILLER_41_354
*785 FILLER_41_357
*786 FILLER_41_389
*787 FILLER_41_405
*788 FILLER_41_413
*789 FILLER_41_417
*790 FILLER_41_419
*791 FILLER_41_66
*792 FILLER_41_70
*793 FILLER_41_73
*794 FILLER_42_101
*795 FILLER_42_105
*796 FILLER_42_108
*797 FILLER_42_172
*798 FILLER_42_176
*799 FILLER_42_179
*800 FILLER_42_2
*801 FILLER_42_243
*802 FILLER_42_247
*803 FILLER_42_250
*804 FILLER_42_314
*805 FILLER_42_318
*806 FILLER_42_321
*807 FILLER_42_34
*808 FILLER_42_37
*809 FILLER_42_385
*810 FILLER_42_389
*811 FILLER_42_392
*812 FILLER_42_408
*813 FILLER_42_416
*814 FILLER_43_137
*815 FILLER_43_141
*816 FILLER_43_144
*817 FILLER_43_2
*818 FILLER_43_208
*819 FILLER_43_212
*820 FILLER_43_215
*821 FILLER_43_279
*822 FILLER_43_283
*823 FILLER_43_286
*824 FILLER_43_350
*825 FILLER_43_354
*826 FILLER_43_357
*827 FILLER_43_389
*828 FILLER_43_405
*829 FILLER_43_413
*830 FILLER_43_417
*831 FILLER_43_419
*832 FILLER_43_66
*833 FILLER_43_70
*834 FILLER_43_73
*835 FILLER_44_101
*836 FILLER_44_105
*837 FILLER_44_108
*838 FILLER_44_172
*839 FILLER_44_176
*840 FILLER_44_179
*841 FILLER_44_2
*842 FILLER_44_243
*843 FILLER_44_247
*844 FILLER_44_250
*845 FILLER_44_314
*846 FILLER_44_318
*847 FILLER_44_321
*848 FILLER_44_34
*849 FILLER_44_37
*850 FILLER_44_385
*851 FILLER_44_389
*852 FILLER_44_392
*853 FILLER_44_408
*854 FILLER_44_416
*855 FILLER_45_137
*856 FILLER_45_141
*857 FILLER_45_144
*858 FILLER_45_2
*859 FILLER_45_208
*860 FILLER_45_212
*861 FILLER_45_215
*862 FILLER_45_279
*863 FILLER_45_283
*864 FILLER_45_286
*865 FILLER_45_350
*866 FILLER_45_354
*867 FILLER_45_357
*868 FILLER_45_389
*869 FILLER_45_405
*870 FILLER_45_413
*871 FILLER_45_417
*872 FILLER_45_419
*873 FILLER_45_66
*874 FILLER_45_70
*875 FILLER_45_73
*876 FILLER_46_101
*877 FILLER_46_105
*878 FILLER_46_108
*879 FILLER_46_172
*880 FILLER_46_176
*881 FILLER_46_179
*882 FILLER_46_2
*883 FILLER_46_243
*884 FILLER_46_247
*885 FILLER_46_250
*886 FILLER_46_314
*887 FILLER_46_318
*888 FILLER_46_321
*889 FILLER_46_34
*890 FILLER_46_37
*891 FILLER_46_385
*892 FILLER_46_389
*893 FILLER_46_392
*894 FILLER_46_408
*895 FILLER_46_416
*896 FILLER_47_137
*897 FILLER_47_141
*898 FILLER_47_144
*899 FILLER_47_2
*900 FILLER_47_208
*901 FILLER_47_212
*902 FILLER_47_215
*903 FILLER_47_279
*904 FILLER_47_283
*905 FILLER_47_286
*906 FILLER_47_350
*907 FILLER_47_354
*908 FILLER_47_357
*909 FILLER_47_389
*910 FILLER_47_405
*911 FILLER_47_413
*912 FILLER_47_417
*913 FILLER_47_419
*914 FILLER_47_66
*915 FILLER_47_70
*916 FILLER_47_73
*917 FILLER_48_101
*918 FILLER_48_105
*919 FILLER_48_108
*920 FILLER_48_172
*921 FILLER_48_176
*922 FILLER_48_179
*923 FILLER_48_2
*924 FILLER_48_243
*925 FILLER_48_247
*926 FILLER_48_250
*927 FILLER_48_314
*928 FILLER_48_318
*929 FILLER_48_321
*930 FILLER_48_34
*931 FILLER_48_37
*932 FILLER_48_385
*933 FILLER_48_389
*934 FILLER_48_392
*935 FILLER_48_408
*936 FILLER_48_416
*937 FILLER_49_13
*938 FILLER_49_137
*939 FILLER_49_141
*940 FILLER_49_144
*941 FILLER_49_2
*942 FILLER_49_208
*943 FILLER_49_212
*944 FILLER_49_215
*945 FILLER_49_279
*946 FILLER_49_283
*947 FILLER_49_286
*948 FILLER_49_350
*949 FILLER_49_354
*950 FILLER_49_357
*951 FILLER_49_389
*952 FILLER_49_405
*953 FILLER_49_413
*954 FILLER_49_417
*955 FILLER_49_419
*956 FILLER_49_45
*957 FILLER_49_61
*958 FILLER_49_69
*959 FILLER_49_73
*960 FILLER_49_9
*961 FILLER_4_101
*962 FILLER_4_105
*963 FILLER_4_108
*964 FILLER_4_172
*965 FILLER_4_176
*966 FILLER_4_179
*967 FILLER_4_2
*968 FILLER_4_243
*969 FILLER_4_247
*970 FILLER_4_250
*971 FILLER_4_314
*972 FILLER_4_318
*973 FILLER_4_321
*974 FILLER_4_34
*975 FILLER_4_37
*976 FILLER_4_385
*977 FILLER_4_389
*978 FILLER_4_392
*979 FILLER_4_408
*980 FILLER_4_416
*981 FILLER_50_101
*982 FILLER_50_105
*983 FILLER_50_108
*984 FILLER_50_172
*985 FILLER_50_176
*986 FILLER_50_179
*987 FILLER_50_2
*988 FILLER_50_243
*989 FILLER_50_247
*990 FILLER_50_250
*991 FILLER_50_314
*992 FILLER_50_318
*993 FILLER_50_321
*994 FILLER_50_34
*995 FILLER_50_37
*996 FILLER_50_385
*997 FILLER_50_389
*998 FILLER_50_392
*999 FILLER_50_408
*1000 FILLER_50_416
*1001 FILLER_51_137
*1002 FILLER_51_141
*1003 FILLER_51_144
*1004 FILLER_51_2
*1005 FILLER_51_208
*1006 FILLER_51_212
*1007 FILLER_51_215
*1008 FILLER_51_279
*1009 FILLER_51_283
*1010 FILLER_51_286
*1011 FILLER_51_350
*1012 FILLER_51_354
*1013 FILLER_51_357
*1014 FILLER_51_389
*1015 FILLER_51_405
*1016 FILLER_51_413
*1017 FILLER_51_417
*1018 FILLER_51_419
*1019 FILLER_51_66
*1020 FILLER_51_70
*1021 FILLER_51_73
*1022 FILLER_52_101
*1023 FILLER_52_105
*1024 FILLER_52_108
*1025 FILLER_52_172
*1026 FILLER_52_176
*1027 FILLER_52_179
*1028 FILLER_52_2
*1029 FILLER_52_243
*1030 FILLER_52_247
*1031 FILLER_52_250
*1032 FILLER_52_314
*1033 FILLER_52_318
*1034 FILLER_52_321
*1035 FILLER_52_34
*1036 FILLER_52_37
*1037 FILLER_52_385
*1038 FILLER_52_389
*1039 FILLER_52_392
*1040 FILLER_52_408
*1041 FILLER_52_416
*1042 FILLER_53_137
*1043 FILLER_53_141
*1044 FILLER_53_144
*1045 FILLER_53_2
*1046 FILLER_53_208
*1047 FILLER_53_212
*1048 FILLER_53_215
*1049 FILLER_53_279
*1050 FILLER_53_283
*1051 FILLER_53_286
*1052 FILLER_53_350
*1053 FILLER_53_354
*1054 FILLER_53_357
*1055 FILLER_53_389
*1056 FILLER_53_405
*1057 FILLER_53_413
*1058 FILLER_53_417
*1059 FILLER_53_419
*1060 FILLER_53_66
*1061 FILLER_53_70
*1062 FILLER_53_73
*1063 FILLER_54_104
*1064 FILLER_54_107
*1065 FILLER_54_139
*1066 FILLER_54_142
*1067 FILLER_54_174
*1068 FILLER_54_177
*1069 FILLER_54_2
*1070 FILLER_54_209
*1071 FILLER_54_212
*1072 FILLER_54_244
*1073 FILLER_54_247
*1074 FILLER_54_279
*1075 FILLER_54_282
*1076 FILLER_54_314
*1077 FILLER_54_317
*1078 FILLER_54_34
*1079 FILLER_54_349
*1080 FILLER_54_352
*1081 FILLER_54_37
*1082 FILLER_54_384
*1083 FILLER_54_387
*1084 FILLER_54_419
*1085 FILLER_54_69
*1086 FILLER_54_72
*1087 FILLER_5_137
*1088 FILLER_5_141
*1089 FILLER_5_144
*1090 FILLER_5_2
*1091 FILLER_5_208
*1092 FILLER_5_212
*1093 FILLER_5_215
*1094 FILLER_5_279
*1095 FILLER_5_283
*1096 FILLER_5_286
*1097 FILLER_5_350
*1098 FILLER_5_354
*1099 FILLER_5_357
*1100 FILLER_5_389
*1101 FILLER_5_405
*1102 FILLER_5_413
*1103 FILLER_5_417
*1104 FILLER_5_419
*1105 FILLER_5_66
*1106 FILLER_5_70
*1107 FILLER_5_73
*1108 FILLER_6_101
*1109 FILLER_6_105
*1110 FILLER_6_108
*1111 FILLER_6_172
*1112 FILLER_6_176
*1113 FILLER_6_179
*1114 FILLER_6_2
*1115 FILLER_6_243
*1116 FILLER_6_247
*1117 FILLER_6_250
*1118 FILLER_6_314
*1119 FILLER_6_318
*1120 FILLER_6_321
*1121 FILLER_6_34
*1122 FILLER_6_37
*1123 FILLER_6_385
*1124 FILLER_6_389
*1125 FILLER_6_392
*1126 FILLER_6_408
*1127 FILLER_6_416
*1128 FILLER_7_13
*1129 FILLER_7_137
*1130 FILLER_7_141
*1131 FILLER_7_144
*1132 FILLER_7_2
*1133 FILLER_7_208
*1134 FILLER_7_212
*1135 FILLER_7_215
*1136 FILLER_7_279
*1137 FILLER_7_283
*1138 FILLER_7_286
*1139 FILLER_7_350
*1140 FILLER_7_354
*1141 FILLER_7_357
*1142 FILLER_7_389
*1143 FILLER_7_405
*1144 FILLER_7_413
*1145 FILLER_7_417
*1146 FILLER_7_419
*1147 FILLER_7_45
*1148 FILLER_7_61
*1149 FILLER_7_69
*1150 FILLER_7_73
*1151 FILLER_7_9
*1152 FILLER_8_101
*1153 FILLER_8_105
*1154 FILLER_8_108
*1155 FILLER_8_172
*1156 FILLER_8_176
*1157 FILLER_8_179
*1158 FILLER_8_2
*1159 FILLER_8_243
*1160 FILLER_8_247
*1161 FILLER_8_250
*1162 FILLER_8_314
*1163 FILLER_8_318
*1164 FILLER_8_321
*1165 FILLER_8_34
*1166 FILLER_8_37
*1167 FILLER_8_385
*1168 FILLER_8_389
*1169 FILLER_8_392
*1170 FILLER_8_408
*1171 FILLER_8_416
*1172 FILLER_9_137
*1173 FILLER_9_141
*1174 FILLER_9_144
*1175 FILLER_9_2
*1176 FILLER_9_208
*1177 FILLER_9_212
*1178 FILLER_9_215
*1179 FILLER_9_279
*1180 FILLER_9_283
*1181 FILLER_9_286
*1182 FILLER_9_350
*1183 FILLER_9_354
*1184 FILLER_9_357
*1185 FILLER_9_389
*1186 FILLER_9_405
*1187 FILLER_9_413
*1188 FILLER_9_417
*1189 FILLER_9_419
*1190 FILLER_9_66
*1191 FILLER_9_70
*1192 FILLER_9_73
*1193 PHY_0
*1194 PHY_1
*1195 PHY_10
*1196 PHY_100
*1197 PHY_101
*1198 PHY_102
*1199 PHY_103
*1200 PHY_104
*1201 PHY_105
*1202 PHY_106
*1203 PHY_107
*1204 PHY_108
*1205 PHY_109
*1206 PHY_11
*1207 PHY_12
*1208 PHY_13
*1209 PHY_14
*1210 PHY_15
*1211 PHY_16
*1212 PHY_17
*1213 PHY_18
*1214 PHY_19
*1215 PHY_2
*1216 PHY_20
*1217 PHY_21
*1218 PHY_22
*1219 PHY_23
*1220 PHY_24
*1221 PHY_25
*1222 PHY_26
*1223 PHY_27
*1224 PHY_28
*1225 PHY_29
*1226 PHY_3
*1227 PHY_30
*1228 PHY_31
*1229 PHY_32
*1230 PHY_33
*1231 PHY_34
*1232 PHY_35
*1233 PHY_36
*1234 PHY_37
*1235 PHY_38
*1236 PHY_39
*1237 PHY_4
*1238 PHY_40
*1239 PHY_41
*1240 PHY_42
*1241 PHY_43
*1242 PHY_44
*1243 PHY_45
*1244 PHY_46
*1245 PHY_47
*1246 PHY_48
*1247 PHY_49
*1248 PHY_5
*1249 PHY_50
*1250 PHY_51
*1251 PHY_52
*1252 PHY_53
*1253 PHY_54
*1254 PHY_55
*1255 PHY_56
*1256 PHY_57
*1257 PHY_58
*1258 PHY_59
*1259 PHY_6
*1260 PHY_60
*1261 PHY_61
*1262 PHY_62
*1263 PHY_63
*1264 PHY_64
*1265 PHY_65
*1266 PHY_66
*1267 PHY_67
*1268 PHY_68
*1269 PHY_69
*1270 PHY_7
*1271 PHY_70
*1272 PHY_71
*1273 PHY_72
*1274 PHY_73
*1275 PHY_74
*1276 PHY_75
*1277 PHY_76
*1278 PHY_77
*1279 PHY_78
*1280 PHY_79
*1281 PHY_8
*1282 PHY_80
*1283 PHY_81
*1284 PHY_82
*1285 PHY_83
*1286 PHY_84
*1287 PHY_85
*1288 PHY_86
*1289 PHY_87
*1290 PHY_88
*1291 PHY_89
*1292 PHY_9
*1293 PHY_90
*1294 PHY_91
*1295 PHY_92
*1296 PHY_93
*1297 PHY_94
*1298 PHY_95
*1299 PHY_96
*1300 PHY_97
*1301 PHY_98
*1302 PHY_99
*1303 TAP_110
*1304 TAP_111
*1305 TAP_112
*1306 TAP_113
*1307 TAP_114
*1308 TAP_115
*1309 TAP_116
*1310 TAP_117
*1311 TAP_118
*1312 TAP_119
*1313 TAP_120
*1314 TAP_121
*1315 TAP_122
*1316 TAP_123
*1317 TAP_124
*1318 TAP_125
*1319 TAP_126
*1320 TAP_127
*1321 TAP_128
*1322 TAP_129
*1323 TAP_130
*1324 TAP_131
*1325 TAP_132
*1326 TAP_133
*1327 TAP_134
*1328 TAP_135
*1329 TAP_136
*1330 TAP_137
*1331 TAP_138
*1332 TAP_139
*1333 TAP_140
*1334 TAP_141
*1335 TAP_142
*1336 TAP_143
*1337 TAP_144
*1338 TAP_145
*1339 TAP_146
*1340 TAP_147
*1341 TAP_148
*1342 TAP_149
*1343 TAP_150
*1344 TAP_151
*1345 TAP_152
*1346 TAP_153
*1347 TAP_154
*1348 TAP_155
*1349 TAP_156
*1350 TAP_157
*1351 TAP_158
*1352 TAP_159
*1353 TAP_160
*1354 TAP_161
*1355 TAP_162
*1356 TAP_163
*1357 TAP_164
*1358 TAP_165
*1359 TAP_166
*1360 TAP_167
*1361 TAP_168
*1362 TAP_169
*1363 TAP_170
*1364 TAP_171
*1365 TAP_172
*1366 TAP_173
*1367 TAP_174
*1368 TAP_175
*1369 TAP_176
*1370 TAP_177
*1371 TAP_178
*1372 TAP_179
*1373 TAP_180
*1374 TAP_181
*1375 TAP_182
*1376 TAP_183
*1377 TAP_184
*1378 TAP_185
*1379 TAP_186
*1380 TAP_187
*1381 TAP_188
*1382 TAP_189
*1383 TAP_190
*1384 TAP_191
*1385 TAP_192
*1386 TAP_193
*1387 TAP_194
*1388 TAP_195
*1389 TAP_196
*1390 TAP_197
*1391 TAP_198
*1392 TAP_199
*1393 TAP_200
*1394 TAP_201
*1395 TAP_202
*1396 TAP_203
*1397 TAP_204
*1398 TAP_205
*1399 TAP_206
*1400 TAP_207
*1401 TAP_208
*1402 TAP_209
*1403 TAP_210
*1404 TAP_211
*1405 TAP_212
*1406 TAP_213
*1407 TAP_214
*1408 TAP_215
*1409 TAP_216
*1410 TAP_217
*1411 TAP_218
*1412 TAP_219
*1413 TAP_220
*1414 TAP_221
*1415 TAP_222
*1416 TAP_223
*1417 TAP_224
*1418 TAP_225
*1419 TAP_226
*1420 TAP_227
*1421 TAP_228
*1422 TAP_229
*1423 TAP_230
*1424 TAP_231
*1425 TAP_232
*1426 TAP_233
*1427 TAP_234
*1428 TAP_235
*1429 TAP_236
*1430 TAP_237
*1431 TAP_238
*1432 TAP_239
*1433 TAP_240
*1434 TAP_241
*1435 TAP_242
*1436 TAP_243
*1437 TAP_244
*1438 TAP_245
*1439 TAP_246
*1440 TAP_247
*1441 TAP_248
*1442 TAP_249
*1443 TAP_250
*1444 TAP_251
*1445 TAP_252
*1446 TAP_253
*1447 TAP_254
*1448 TAP_255
*1449 TAP_256
*1450 TAP_257
*1451 TAP_258
*1452 TAP_259
*1453 TAP_260
*1454 TAP_261
*1455 TAP_262
*1456 TAP_263
*1457 TAP_264
*1458 TAP_265
*1459 TAP_266
*1460 TAP_267
*1461 TAP_268
*1462 TAP_269
*1463 TAP_270
*1464 TAP_271
*1465 TAP_272
*1466 TAP_273
*1467 TAP_274
*1468 TAP_275
*1469 TAP_276
*1470 TAP_277
*1471 TAP_278
*1472 TAP_279
*1473 TAP_280
*1474 TAP_281
*1475 TAP_282
*1476 TAP_283
*1477 TAP_284
*1478 TAP_285
*1479 TAP_286
*1480 TAP_287
*1481 TAP_288
*1482 TAP_289
*1483 TAP_290
*1484 TAP_291
*1485 TAP_292
*1486 TAP_293
*1487 TAP_294
*1488 TAP_295
*1489 TAP_296
*1490 TAP_297
*1491 TAP_298
*1492 TAP_299
*1493 TAP_300
*1494 TAP_301
*1495 TAP_302
*1496 TAP_303
*1497 TAP_304
*1498 TAP_305
*1499 TAP_306
*1500 TAP_307
*1501 TAP_308
*1502 TAP_309
*1503 TAP_310
*1504 TAP_311
*1505 TAP_312
*1506 TAP_313
*1507 TAP_314
*1508 TAP_315
*1509 TAP_316
*1510 TAP_317
*1511 TAP_318
*1512 TAP_319
*1513 TAP_320
*1514 TAP_321
*1515 TAP_322
*1516 TAP_323
*1517 TAP_324
*1518 TAP_325
*1519 TAP_326
*1520 TAP_327
*1521 TAP_328
*1522 TAP_329
*1523 TAP_330
*1524 TAP_331
*1525 TAP_332
*1526 TAP_333
*1527 TAP_334
*1528 TAP_335
*1529 TAP_336
*1530 TAP_337
*1531 TAP_338
*1532 TAP_339
*1533 TAP_340
*1534 TAP_341
*1535 TAP_342
*1536 TAP_343
*1537 TAP_344
*1538 TAP_345
*1539 TAP_346
*1540 TAP_347
*1541 TAP_348
*1542 TAP_349
*1543 TAP_350
*1544 TAP_351
*1545 TAP_352
*1546 TAP_353
*1547 TAP_354
*1548 TAP_355
*1549 TAP_356
*1550 TAP_357
*1551 TAP_358
*1552 TAP_359
*1553 TAP_360
*1554 TAP_361
*1555 TAP_362
*1556 TAP_363
*1557 TAP_364
*1558 TAP_365
*1559 TAP_366
*1560 TAP_367
*1561 TAP_368
*1562 TAP_369
*1563 TAP_370
*1564 TAP_371
*1565 TAP_372
*1566 TAP_373
*1567 TAP_374
*1568 TAP_375
*1569 TAP_376
*1570 TAP_377
*1571 TAP_378
*1572 TAP_379
*1573 TAP_380
*1574 TAP_381
*1575 TAP_382
*1576 TAP_383
*1577 TAP_384
*1578 TAP_385
*1579 TAP_386
*1580 TAP_387
*1581 TAP_388
*1582 TAP_389
*1583 TAP_390
*1584 TAP_391
*1585 TAP_392
*1586 TAP_393
*1587 TAP_394
*1588 TAP_395
*1589 TAP_396
*1590 TAP_397
*1591 TAP_398
*1592 TAP_399
*1593 TAP_400
*1594 TAP_401
*1595 TAP_402
*1596 TAP_403
*1597 TAP_404
*1598 TAP_405
*1599 TAP_406
*1600 TAP_407
*1601 TAP_408
*1602 TAP_409
*1603 TAP_410
*1604 TAP_411
*1605 TAP_412
*1606 TAP_413
*1607 TAP_414
*1608 TAP_415
*1609 TAP_416
*1610 TAP_417
*1611 TAP_418
*1612 TAP_419
*1613 TAP_420
*1614 TAP_421
*1615 TAP_422
*1616 _1_
*1617 _2_
*1618 _3_
*1619 _4_
*1620 _5_
*1621 clkbuf_0_core_clock
*1622 clkbuf_0_net2
*1623 clkbuf_1_0__f_core_clock
*1624 clkbuf_1_0__f_net2
*1625 clkbuf_1_1__f_core_clock
*1626 clkbuf_1_1__f_net2
*1627 input1
*1628 output2
*1629 output3
*1630 output4

*PORTS
clock_out_a O
clock_out_b O
clock_out_c O
core_clock I
io_clock I
la_oenb I

*D_NET *1 0.000773438
*CONN
*P clock_out_a O
*I *1628:Z O *D gf180mcu_fd_sc_mcu7t5v0__buf_1
*CAP
1 clock_out_a 0.000386719
2 *1628:Z 0.000386719
*RES
1 *1628:Z clock_out_a 12.735 
*END

*D_NET *2 0.000633827
*CONN
*P clock_out_b O
*I *1629:Z O *D gf180mcu_fd_sc_mcu7t5v0__buf_1
*CAP
1 clock_out_b 0.000316914
2 *1629:Z 0.000316914
*RES
1 *1629:Z clock_out_b 11.835 
*END

*D_NET *3 0.000694698
*CONN
*P clock_out_c O
*I *1630:Z O *D gf180mcu_fd_sc_mcu7t5v0__buf_1
*CAP
1 clock_out_c 0.000328936
2 *1630:Z 0.000328936
3 clock_out_c *1630:I 3.68254e-05
4 clock_out_c *19:11 0
*RES
1 *1630:Z clock_out_c 12.195 
*END

*D_NET *4 0.0102645
*CONN
*P core_clock I
*I *1621:I I *D gf180mcu_fd_sc_mcu7t5v0__clkbuf_16
*I *24:I I *D gf180mcu_fd_sc_mcu7t5v0__antenna
*CAP
1 core_clock 0.00451391
2 *1621:I 4.91239e-05
3 *24:I 0
4 *4:16 0.00456303
5 *1621:I *5:11 0.000207232
6 *4:16 *1616:I1 0.000744713
7 *4:16 *1616:S 0
8 *4:16 *5:11 0.000186509
*RES
1 core_clock *4:16 45.315 
2 *4:16 *24:I 9 
3 *4:16 *1621:I 9.99 
*END

*D_NET *5 0.0132099
*CONN
*P io_clock I
*I *21:I I *D gf180mcu_fd_sc_mcu7t5v0__antenna
*I *1616:I1 I *D gf180mcu_fd_sc_mcu7t5v0__mux2_2
*CAP
1 io_clock 0.00130741
2 *21:I 0
3 *1616:I1 0.00018316
4 *5:11 0.00441445
5 *5:10 0.00553871
6 *1616:I1 *1616:S 1.53439e-05
7 *5:11 *1618:D 7.77123e-05
8 *5:11 *1625:I 0.000534659