*SPEF "ieee 1481-1999"
*DESIGN "clock_mux"
*DATE "11:11:11 Fri 11 11, 1111"
*VENDOR "OpenRCX"
*PROGRAM "Parallel Extraction"
*VERSION "1.0"
*DESIGN_FLOW "NAME_SCOPE LOCAL" "PIN_CAP NONE"
*DIVIDER /
*DELIMITER :
*BUS_DELIMITER []
*T_UNIT 1 NS
*C_UNIT 1 PF
*R_UNIT 1 OHM
*L_UNIT 1 HENRY

*NAME_MAP
*1 clock_out_a
*2 clock_out_b
*3 clock_out_c
*4 core_clock
*5 io_clock
*6 la_oenb
*9 _0_
*10 clknet_0_core_clock
*11 clknet_0_net2
*12 clknet_1_0__leaf_core_clock
*13 clknet_1_0__leaf_net2
*14 clknet_1_1__leaf_core_clock
*15 clknet_1_1__leaf_net2
*16 net1
*17 net2
*18 net3
*19 net4
*20 sel_reg
*21 ANTENNA__1__I1
*22 ANTENNA__3__D
*23 ANTENNA__4__I
*24 ANTENNA__5__I
*25 ANTENNA_clkbuf_0_core_clock_I
*26 ANTENNA_clkbuf_1_0__f_net2_I
*27 ANTENNA_clkbuf_1_1__f_net2_I
*28 ANTENNA_input1_I
*29 ANTENNA_output2_I
*30 ANTENNA_output4_I
*31 FILLER_0_104
*32 FILLER_0_107
*33 FILLER_0_139
*34 FILLER_0_142
*35 FILLER_0_174
*36 FILLER_0_177
*37 FILLER_0_2
*38 FILLER_0_209
*39 FILLER_0_212
*40 FILLER_0_244
*41 FILLER_0_247
*42 FILLER_0_279
*43 FILLER_0_282
*44 FILLER_0_314
*45 FILLER_0_317
*46 FILLER_0_321
*47 FILLER_0_339
*48 FILLER_0_34
*49 FILLER_0_347
*50 FILLER_0_349
*51 FILLER_0_352
*52 FILLER_0_37
*53 FILLER_0_384
*54 FILLER_0_387
*55 FILLER_0_419
*56 FILLER_0_69
*57 FILLER_0_72
*58 FILLER_10_101
*59 FILLER_10_105
*60 FILLER_10_108
*61 FILLER_10_172
*62 FILLER_10_176
*63 FILLER_10_179
*64 FILLER_10_2
*65 FILLER_10_243
*66 FILLER_10_247
*67 FILLER_10_250
*68 FILLER_10_314
*69 FILLER_10_318
*70 FILLER_10_321
*71 FILLER_10_34
*72 FILLER_10_37
*73 FILLER_10_385
*74 FILLER_10_389
*75 FILLER_10_392
*76 FILLER_10_408
*77 FILLER_10_416
*78 FILLER_11_140
*79 FILLER_11_144
*80 FILLER_11_18
*81 FILLER_11_2
*82 FILLER_11_208
*83 FILLER_11_212
*84 FILLER_11_215
*85 FILLER_11_279
*86 FILLER_11_283
*87 FILLER_11_286
*88 FILLER_11_350
*89 FILLER_11_354
*90 FILLER_11_357
*91 FILLER_11_389
*92 FILLER_11_405
*93 FILLER_11_413
*94 FILLER_11_417
*95 FILLER_11_419
*96 FILLER_11_70
*97 FILLER_11_73
*98 FILLER_11_76
*99 FILLER_12_101
*100 FILLER_12_105
*101 FILLER_12_108
*102 FILLER_12_172
*103 FILLER_12_176
*104 FILLER_12_179
*105 FILLER_12_2
*106 FILLER_12_243
*107 FILLER_12_247
*108 FILLER_12_250
*109 FILLER_12_314
*110 FILLER_12_318
*111 FILLER_12_321
*112 FILLER_12_34
*113 FILLER_12_37
*114 FILLER_12_385
*115 FILLER_12_389
*116 FILLER_12_392
*117 FILLER_12_408
*118 FILLER_12_416
*119 FILLER_13_137
*120 FILLER_13_141
*121 FILLER_13_144
*122 FILLER_13_2
*123 FILLER_13_208
*124 FILLER_13_212
*125 FILLER_13_215
*126 FILLER_13_279
*127 FILLER_13_283
*128 FILLER_13_286
*129 FILLER_13_350
*130 FILLER_13_354
*131 FILLER_13_357
*132 FILLER_13_389
*133 FILLER_13_405
*134 FILLER_13_413
*135 FILLER_13_417
*136 FILLER_13_419
*137 FILLER_13_66
*138 FILLER_13_70
*139 FILLER_13_73
*140 FILLER_14_101
*141 FILLER_14_105
*142 FILLER_14_108
*143 FILLER_14_172
*144 FILLER_14_176
*145 FILLER_14_179
*146 FILLER_14_2
*147 FILLER_14_243
*148 FILLER_14_247
*149 FILLER_14_250
*150 FILLER_14_314
*151 FILLER_14_318
*152 FILLER_14_321
*153 FILLER_14_34
*154 FILLER_14_37
*155 FILLER_14_385
*156 FILLER_14_389
*157 FILLER_14_392
*158 FILLER_14_408
*159 FILLER_14_416
*160 FILLER_15_137
*161 FILLER_15_141
*162 FILLER_15_144
*163 FILLER_15_2
*164 FILLER_15_208
*165 FILLER_15_212
*166 FILLER_15_215
*167 FILLER_15_279
*168 FILLER_15_283
*169 FILLER_15_286
*170 FILLER_15_350
*171 FILLER_15_354
*172 FILLER_15_357
*173 FILLER_15_389
*174 FILLER_15_405
*175 FILLER_15_413
*176 FILLER_15_417
*177 FILLER_15_419
*178 FILLER_15_66
*179 FILLER_15_70
*180 FILLER_15_73
*181 FILLER_16_101
*182 FILLER_16_105
*183 FILLER_16_108
*184 FILLER_16_172
*185 FILLER_16_176
*186 FILLER_16_179
*187 FILLER_16_2
*188 FILLER_16_243
*189 FILLER_16_247
*190 FILLER_16_250
*191 FILLER_16_314
*192 FILLER_16_318
*193 FILLER_16_321
*194 FILLER_16_34
*195 FILLER_16_37
*196 FILLER_16_385
*197 FILLER_16_389
*198 FILLER_16_392
*199 FILLER_16_408
*200 FILLER_16_416
*201 FILLER_17_137
*202 FILLER_17_141
*203 FILLER_17_144
*204 FILLER_17_2
*205 FILLER_17_208
*206 FILLER_17_212
*207 FILLER_17_215
*208 FILLER_17_279
*209 FILLER_17_283
*210 FILLER_17_286
*211 FILLER_17_350
*212 FILLER_17_354
*213 FILLER_17_357
*214 FILLER_17_389
*215 FILLER_17_405
*216 FILLER_17_413
*217 FILLER_17_417
*218 FILLER_17_419
*219 FILLER_17_66
*220 FILLER_17_70
*221 FILLER_17_73
*222 FILLER_18_104
*223 FILLER_18_108
*224 FILLER_18_172
*225 FILLER_18_176
*226 FILLER_18_179
*227 FILLER_18_2
*228 FILLER_18_243
*229 FILLER_18_247
*230 FILLER_18_250
*231 FILLER_18_314
*232 FILLER_18_318
*233 FILLER_18_321
*234 FILLER_18_34
*235 FILLER_18_37
*236 FILLER_18_385
*237 FILLER_18_389
*238 FILLER_18_392
*239 FILLER_18_408
*240 FILLER_18_416
*241 FILLER_18_88
*242 FILLER_19_137
*243 FILLER_19_141
*244 FILLER_19_144
*245 FILLER_19_2
*246 FILLER_19_208
*247 FILLER_19_212
*248 FILLER_19_215
*249 FILLER_19_279
*250 FILLER_19_283
*251 FILLER_19_286
*252 FILLER_19_350
*253 FILLER_19_354
*254 FILLER_19_357
*255 FILLER_19_389
*256 FILLER_19_405
*257 FILLER_19_413
*258 FILLER_19_417
*259 FILLER_19_419
*260 FILLER_19_66
*261 FILLER_19_70
*262 FILLER_19_73
*263 FILLER_1_137
*264 FILLER_1_141
*265 FILLER_1_144
*266 FILLER_1_2
*267 FILLER_1_208
*268 FILLER_1_212
*269 FILLER_1_215
*270 FILLER_1_279
*271 FILLER_1_283
*272 FILLER_1_286
*273 FILLER_1_350
*274 FILLER_1_354
*275 FILLER_1_357
*276 FILLER_1_389
*277 FILLER_1_405
*278 FILLER_1_413
*279 FILLER_1_417
*280 FILLER_1_419
*281 FILLER_1_66
*282 FILLER_1_70
*283 FILLER_1_73
*284 FILLER_20_100
*285 FILLER_20_104
*286 FILLER_20_108
*287 FILLER_20_174
*288 FILLER_20_176
*289 FILLER_20_179
*290 FILLER_20_2
*291 FILLER_20_243
*292 FILLER_20_247
*293 FILLER_20_250
*294 FILLER_20_314
*295 FILLER_20_318
*296 FILLER_20_321
*297 FILLER_20_34
*298 FILLER_20_37
*299 FILLER_20_385
*300 FILLER_20_389
*301 FILLER_20_392
*302 FILLER_20_408
*303 FILLER_20_416
*304 FILLER_20_88
*305 FILLER_20_92
*306 FILLER_21_137
*307 FILLER_21_141
*308 FILLER_21_144
*309 FILLER_21_2
*310 FILLER_21_208
*311 FILLER_21_212
*312 FILLER_21_215
*313 FILLER_21_279
*314 FILLER_21_283
*315 FILLER_21_286
*316 FILLER_21_350
*317 FILLER_21_354
*318 FILLER_21_357
*319 FILLER_21_389
*320 FILLER_21_405
*321 FILLER_21_413
*322 FILLER_21_417
*323 FILLER_21_419
*324 FILLER_21_66
*325 FILLER_21_70
*326 FILLER_21_73
*327 FILLER_22_101
*328 FILLER_22_105
*329 FILLER_22_108
*330 FILLER_22_172
*331 FILLER_22_176
*332 FILLER_22_179
*333 FILLER_22_2
*334 FILLER_22_243
*335 FILLER_22_247
*336 FILLER_22_250
*337 FILLER_22_314
*338 FILLER_22_318
*339 FILLER_22_321
*340 FILLER_22_34
*341 FILLER_22_37
*342 FILLER_22_385
*343 FILLER_22_389
*344 FILLER_22_392
*345 FILLER_22_408
*346 FILLER_22_416
*347 FILLER_23_101
*348 FILLER_23_131
*349 FILLER_23_135
*350 FILLER_23_139
*351 FILLER_23_141
*352 FILLER_23_144
*353 FILLER_23_2
*354 FILLER_23_208
*355 FILLER_23_212
*356 FILLER_23_215
*357 FILLER_23_279
*358 FILLER_23_283
*359 FILLER_23_286
*360 FILLER_23_350
*361 FILLER_23_354
*362 FILLER_23_357
*363 FILLER_23_389
*364 FILLER_23_405
*365 FILLER_23_413
*366 FILLER_23_417
*367 FILLER_23_419
*368 FILLER_23_66
*369 FILLER_23_70
*370 FILLER_23_73
*371 FILLER_23_89
*372 FILLER_23_97
*373 FILLER_24_105
*374 FILLER_24_108
*375 FILLER_24_111
*376 FILLER_24_117
*377 FILLER_24_169
*378 FILLER_24_179
*379 FILLER_24_2
*380 FILLER_24_243
*381 FILLER_24_247
*382 FILLER_24_250
*383 FILLER_24_314
*384 FILLER_24_318
*385 FILLER_24_321
*386 FILLER_24_34
*387 FILLER_24_37
*388 FILLER_24_385
*389 FILLER_24_389
*390 FILLER_24_392
*391 FILLER_24_408
*392 FILLER_24_416
*393 FILLER_24_53
*394 FILLER_24_57
*395 FILLER_24_65
*396 FILLER_24_81
*397 FILLER_24_89
*398 FILLER_25_140
*399 FILLER_25_144
*400 FILLER_25_2
*401 FILLER_25_208
*402 FILLER_25_212
*403 FILLER_25_215
*404 FILLER_25_279
*405 FILLER_25_283
*406 FILLER_25_286
*407 FILLER_25_350
*408 FILLER_25_354
*409 FILLER_25_357
*410 FILLER_25_389
*411 FILLER_25_405
*412 FILLER_25_413
*413 FILLER_25_417
*414 FILLER_25_419
*415 FILLER_25_66
*416 FILLER_25_70
*417 FILLER_25_73
*418 FILLER_25_89
*419 FILLER_26_10
*420 FILLER_26_101
*421 FILLER_26_105
*422 FILLER_26_108
*423 FILLER_26_14
*424 FILLER_26_172
*425 FILLER_26_176
*426 FILLER_26_179
*427 FILLER_26_2
*428 FILLER_26_22
*429 FILLER_26_243
*430 FILLER_26_247
*431 FILLER_26_250
*432 FILLER_26_26
*433 FILLER_26_314
*434 FILLER_26_318
*435 FILLER_26_321
*436 FILLER_26_34
*437 FILLER_26_37
*438 FILLER_26_385
*439 FILLER_26_389
*440 FILLER_26_392
*441 FILLER_26_408
*442 FILLER_26_416
*443 FILLER_27_137
*444 FILLER_27_141
*445 FILLER_27_144
*446 FILLER_27_2
*447 FILLER_27_208
*448 FILLER_27_212
*449 FILLER_27_215
*450 FILLER_27_279
*451 FILLER_27_283
*452 FILLER_27_286
*453 FILLER_27_350
*454 FILLER_27_354
*455 FILLER_27_357
*456 FILLER_27_37
*457 FILLER_27_389
*458 FILLER_27_405
*459 FILLER_27_413
*460 FILLER_27_417
*461 FILLER_27_419
*462 FILLER_27_69
*463 FILLER_27_73
*464 FILLER_28_10
*465 FILLER_28_101
*466 FILLER_28_105
*467 FILLER_28_108
*468 FILLER_28_14
*469 FILLER_28_172
*470 FILLER_28_176
*471 FILLER_28_179
*472 FILLER_28_2
*473 FILLER_28_22
*474 FILLER_28_243
*475 FILLER_28_247
*476 FILLER_28_250
*477 FILLER_28_26
*478 FILLER_28_314
*479 FILLER_28_318
*480 FILLER_28_321
*481 FILLER_28_34
*482 FILLER_28_37
*483 FILLER_28_385
*484 FILLER_28_389
*485 FILLER_28_392
*486 FILLER_28_408
*487 FILLER_28_416
*488 FILLER_29_137
*489 FILLER_29_141
*490 FILLER_29_144
*491 FILLER_29_2
*492 FILLER_29_208
*493 FILLER_29_212
*494 FILLER_29_215
*495 FILLER_29_279
*496 FILLER_29_283
*497 FILLER_29_286
*498 FILLER_29_350
*499 FILLER_29_354
*500 FILLER_29_357
*501 FILLER_29_389
*502 FILLER_29_405
*503 FILLER_29_413
*504 FILLER_29_417
*505 FILLER_29_419
*506 FILLER_29_66
*507 FILLER_29_70
*508 FILLER_29_73
*509 FILLER_2_101
*510 FILLER_2_105
*511 FILLER_2_108
*512 FILLER_2_172
*513 FILLER_2_176
*514 FILLER_2_179
*515 FILLER_2_2
*516 FILLER_2_243
*517 FILLER_2_247
*518 FILLER_2_250
*519 FILLER_2_314
*520 FILLER_2_318
*521 FILLER_2_321
*522 FILLER_2_34
*523 FILLER_2_37
*524 FILLER_2_385
*525 FILLER_2_389
*526 FILLER_2_392
*527 FILLER_2_408
*528 FILLER_2_416
*529 FILLER_30_101
*530 FILLER_30_105
*531 FILLER_30_108
*532 FILLER_30_172
*533 FILLER_30_176
*534 FILLER_30_179
*535 FILLER_30_2
*536 FILLER_30_243
*537 FILLER_30_247
*538 FILLER_30_250
*539 FILLER_30_314
*540 FILLER_30_318
*541 FILLER_30_321
*542 FILLER_30_34
*543 FILLER_30_37
*544 FILLER_30_385
*545 FILLER_30_389
*546 FILLER_30_392
*547 FILLER_30_408
*548 FILLER_30_416
*549 FILLER_31_137
*550 FILLER_31_141
*551 FILLER_31_144
*552 FILLER_31_2
*553 FILLER_31_208
*554 FILLER_31_212
*555 FILLER_31_215
*556 FILLER_31_279
*557 FILLER_31_283
*558 FILLER_31_286
*559 FILLER_31_350
*560 FILLER_31_354
*561 FILLER_31_357
*562 FILLER_31_389
*563 FILLER_31_405
*564 FILLER_31_413
*565 FILLER_31_417
*566 FILLER_31_419
*567 FILLER_31_66
*568 FILLER_31_70
*569 FILLER_31_73
*570 FILLER_32_101
*571 FILLER_32_105
*572 FILLER_32_108
*573 FILLER_32_172
*574 FILLER_32_176
*575 FILLER_32_179
*576 FILLER_32_2
*577 FILLER_32_243
*578 FILLER_32_247
*579 FILLER_32_250
*580 FILLER_32_314
*581 FILLER_32_318
*582 FILLER_32_321
*583 FILLER_32_34
*584 FILLER_32_37
*585 FILLER_32_385
*586 FILLER_32_389
*587 FILLER_32_392
*588 FILLER_32_408
*589 FILLER_32_416
*590 FILLER_33_137
*591 FILLER_33_141
*592 FILLER_33_144
*593 FILLER_33_2
*594 FILLER_33_208
*595 FILLER_33_212
*596 FILLER_33_215
*597 FILLER_33_279
*598 FILLER_33_283
*599 FILLER_33_286
*600 FILLER_33_350
*601 FILLER_33_354
*602 FILLER_33_357
*603 FILLER_33_389
*604 FILLER_33_405
*605 FILLER_33_413
*606 FILLER_33_417
*607 FILLER_33_419
*608 FILLER_33_66
*609 FILLER_33_70
*610 FILLER_33_73
*611 FILLER_34_101
*612 FILLER_34_105
*613 FILLER_34_108
*614 FILLER_34_172
*615 FILLER_34_176
*616 FILLER_34_179
*617 FILLER_34_2
*618 FILLER_34_243
*619 FILLER_34_247
*620 FILLER_34_250
*621 FILLER_34_314
*622 FILLER_34_318
*623 FILLER_34_321
*624 FILLER_34_34
*625 FILLER_34_37
*626 FILLER_34_385
*627 FILLER_34_389
*628 FILLER_34_392
*629 FILLER_34_408
*630 FILLER_34_416
*631 FILLER_35_137
*632 FILLER_35_141
*633 FILLER_35_144
*634 FILLER_35_2
*635 FILLER_35_208
*636 FILLER_35_212
*637 FILLER_35_215
*638 FILLER_35_279
*639 FILLER_35_283
*640 FILLER_35_286
*641 FILLER_35_350
*642 FILLER_35_354
*643 FILLER_35_357
*644 FILLER_35_389
*645 FILLER_35_405
*646 FILLER_35_413
*647 FILLER_35_417
*648 FILLER_35_419
*649 FILLER_35_66
*650 FILLER_35_70
*651 FILLER_35_73
*652 FILLER_36_101
*653 FILLER_36_105
*654 FILLER_36_108
*655 FILLER_36_172
*656 FILLER_36_176
*657 FILLER_36_179
*658 FILLER_36_2
*659 FILLER_36_243
*660 FILLER_36_247
*661 FILLER_36_250
*662 FILLER_36_314
*663 FILLER_36_318
*664 FILLER_36_321
*665 FILLER_36_34
*666 FILLER_36_37
*667 FILLER_36_385
*668 FILLER_36_389
*669 FILLER_36_392
*670 FILLER_36_408
*671 FILLER_36_416
*672 FILLER_37_137
*673 FILLER_37_141
*674 FILLER_37_144
*675 FILLER_37_2
*676 FILLER_37_208
*677 FILLER_37_212
*678 FILLER_37_215
*679 FILLER_37_279
*680 FILLER_37_283
*681 FILLER_37_286
*682 FILLER_37_350
*683 FILLER_37_354
*684 FILLER_37_357
*685 FILLER_37_389
*686 FILLER_37_405
*687 FILLER_37_413
*688 FILLER_37_417
*689 FILLER_37_419
*690 FILLER_37_66
*691 FILLER_37_70
*692 FILLER_37_73
*693 FILLER_38_101
*694 FILLER_38_105
*695 FILLER_38_108
*696 FILLER_38_172
*697 FILLER_38_176
*698 FILLER_38_179
*699 FILLER_38_2
*700 FILLER_38_243
*701 FILLER_38_247
*702 FILLER_38_250
*703 FILLER_38_314
*704 FILLER_38_318
*705 FILLER_38_321
*706 FILLER_38_34
*707 FILLER_38_37
*708 FILLER_38_385
*709 FILLER_38_389
*710 FILLER_38_392
*711 FILLER_38_408
*712 FILLER_38_416
*713 FILLER_39_137
*714 FILLER_39_141
*715 FILLER_39_144
*716 FILLER_39_2
*717 FILLER_39_208
*718 FILLER_39_212
*719 FILLER_39_215
*720 FILLER_39_279
*721 FILLER_39_283
*722 FILLER_39_286
*723 FILLER_39_350
*724 FILLER_39_354
*725 FILLER_39_357
*726 FILLER_39_389
*727 FILLER_39_405
*728 FILLER_39_413
*729 FILLER_39_417
*730 FILLER_39_419
*731 FILLER_39_66
*732 FILLER_39_70
*733 FILLER_39_73
*734 FILLER_3_137
*735 FILLER_3_141
*736 FILLER_3_144
*737 FILLER_3_2
*738 FILLER_3_208
*739 FILLER_3_212
*740 FILLER_3_215
*741 FILLER_3_279
*742 FILLER_3_283
*743 FILLER_3_286
*744 FILLER_3_350
*745 FILLER_3_354
*746 FILLER_3_357
*747 FILLER_3_389
*748 FILLER_3_405
*749 FILLER_3_413
*750 FILLER_3_417
*751 FILLER_3_419
*752 FILLER_3_66
*753 FILLER_3_70
*754 FILLER_3_73
*755 FILLER_40_101
*756 FILLER_40_105
*757 FILLER_40_108
*758 FILLER_40_172
*759 FILLER_40_176
*760 FILLER_40_179
*761 FILLER_40_2
*762 FILLER_40_243
*763 FILLER_40_247
*764 FILLER_40_250
*765 FILLER_40_314
*766 FILLER_40_318
*767 FILLER_40_321
*768 FILLER_40_34
*769 FILLER_40_37
*770 FILLER_40_385
*771 FILLER_40_389
*772 FILLER_40_392
*773 FILLER_40_408
*774 FILLER_40_416
*775 FILLER_41_137
*776 FILLER_41_141
*777 FILLER_41_144
*778 FILLER_41_2
*779 FILLER_41_208
*780 FILLER_41_212
*781 FILLER_41_215
*782 FILLER_41_279
*783 FILLER_41_283
*784 FILLER_41_286
*785 FILLER_41_350
*786 FILLER_41_354
*787 FILLER_41_357
*788 FILLER_41_389
*789 FILLER_41_405
*790 FILLER_41_413
*791 FILLER_41_417
*792 FILLER_41_419
*793 FILLER_41_66
*794 FILLER_41_70
*795 FILLER_41_73
*796 FILLER_42_101
*797 FILLER_42_105
*798 FILLER_42_108
*799 FILLER_42_172
*800 FILLER_42_176
*801 FILLER_42_179
*802 FILLER_42_2
*803 FILLER_42_243
*804 FILLER_42_247
*805 FILLER_42_250
*806 FILLER_42_314
*807 FILLER_42_318
*808 FILLER_42_321
*809 FILLER_42_34
*810 FILLER_42_37
*811 FILLER_42_385
*812 FILLER_42_389
*813 FILLER_42_392
*814 FILLER_42_408
*815 FILLER_42_416
*816 FILLER_43_137
*817 FILLER_43_141
*818 FILLER_43_144
*819 FILLER_43_2
*820 FILLER_43_208
*821 FILLER_43_212
*822 FILLER_43_215
*823 FILLER_43_279
*824 FILLER_43_283
*825 FILLER_43_286
*826 FILLER_43_350
*827 FILLER_43_354
*828 FILLER_43_357
*829 FILLER_43_389
*830 FILLER_43_405
*831 FILLER_43_413
*832 FILLER_43_417
*833 FILLER_43_419
*834 FILLER_43_66
*835 FILLER_43_70
*836 FILLER_43_73
*837 FILLER_44_101
*838 FILLER_44_105
*839 FILLER_44_108
*840 FILLER_44_172
*841 FILLER_44_176
*842 FILLER_44_179
*843 FILLER_44_2
*844 FILLER_44_243
*845 FILLER_44_247
*846 FILLER_44_250
*847 FILLER_44_314
*848 FILLER_44_318
*849 FILLER_44_321
*850 FILLER_44_34
*851 FILLER_44_37
*852 FILLER_44_385
*853 FILLER_44_389
*854 FILLER_44_392
*855 FILLER_44_408
*856 FILLER_44_416
*857 FILLER_45_137
*858 FILLER_45_141
*859 FILLER_45_144
*860 FILLER_45_2
*861 FILLER_45_208
*862 FILLER_45_212
*863 FILLER_45_215
*864 FILLER_45_279
*865 FILLER_45_283
*866 FILLER_45_286
*867 FILLER_45_350
*868 FILLER_45_354
*869 FILLER_45_357
*870 FILLER_45_389
*871 FILLER_45_405
*872 FILLER_45_413
*873 FILLER_45_417
*874 FILLER_45_419
*875 FILLER_45_66
*876 FILLER_45_70
*877 FILLER_45_73
*878 FILLER_46_101
*879 FILLER_46_105
*880 FILLER_46_108
*881 FILLER_46_172
*882 FILLER_46_176
*883 FILLER_46_179
*884 FILLER_46_2
*885 FILLER_46_243
*886 FILLER_46_247
*887 FILLER_46_250
*888 FILLER_46_314
*889 FILLER_46_318
*890 FILLER_46_321
*891 FILLER_46_34
*892 FILLER_46_37
*893 FILLER_46_385
*894 FILLER_46_389
*895 FILLER_46_392
*896 FILLER_46_408
*897 FILLER_46_416
*898 FILLER_47_137
*899 FILLER_47_141
*900 FILLER_47_144
*901 FILLER_47_2
*902 FILLER_47_208
*903 FILLER_47_212
*904 FILLER_47_215
*905 FILLER_47_279
*906 FILLER_47_283
*907 FILLER_47_286
*908 FILLER_47_350
*909 FILLER_47_354
*910 FILLER_47_357
*911 FILLER_47_389
*912 FILLER_47_405
*913 FILLER_47_413
*914 FILLER_47_417
*915 FILLER_47_419
*916 FILLER_47_66
*917 FILLER_47_70
*918 FILLER_47_73
*919 FILLER_48_101
*920 FILLER_48_105
*921 FILLER_48_108
*922 FILLER_48_172
*923 FILLER_48_176
*924 FILLER_48_179
*925 FILLER_48_2
*926 FILLER_48_243
*927 FILLER_48_247
*928 FILLER_48_250
*929 FILLER_48_314
*930 FILLER_48_318
*931 FILLER_48_321
*932 FILLER_48_34
*933 FILLER_48_37
*934 FILLER_48_385
*935 FILLER_48_389
*936 FILLER_48_392
*937 FILLER_48_408
*938 FILLER_48_416
*939 FILLER_49_137
*940 FILLER_49_141
*941 FILLER_49_144
*942 FILLER_49_2
*943 FILLER_49_208
*944 FILLER_49_212
*945 FILLER_49_215
*946 FILLER_49_279
*947 FILLER_49_283
*948 FILLER_49_286
*949 FILLER_49_350
*950 FILLER_49_354
*951 FILLER_49_357
*952 FILLER_49_37
*953 FILLER_49_389
*954 FILLER_49_405
*955 FILLER_49_41
*956 FILLER_49_413
*957 FILLER_49_417
*958 FILLER_49_419
*959 FILLER_49_57
*960 FILLER_49_65
*961 FILLER_49_69
*962 FILLER_49_73
*963 FILLER_4_101
*964 FILLER_4_105
*965 FILLER_4_108
*966 FILLER_4_172
*967 FILLER_4_176
*968 FILLER_4_179
*969 FILLER_4_2
*970 FILLER_4_243
*971 FILLER_4_247
*972 FILLER_4_250
*973 FILLER_4_314
*974 FILLER_4_318
*975 FILLER_4_321
*976 FILLER_4_34
*977 FILLER_4_37
*978 FILLER_4_385
*979 FILLER_4_389
*980 FILLER_4_392
*981 FILLER_4_408
*982 FILLER_4_416
*983 FILLER_50_101
*984 FILLER_50_105
*985 FILLER_50_108
*986 FILLER_50_172
*987 FILLER_50_176
*988 FILLER_50_179
*989 FILLER_50_2
*990 FILLER_50_243
*991 FILLER_50_247
*992 FILLER_50_250
*993 FILLER_50_314
*994 FILLER_50_318
*995 FILLER_50_321
*996 FILLER_50_34
*997 FILLER_50_37
*998 FILLER_50_385
*999 FILLER_50_389
*1000 FILLER_50_392
*1001 FILLER_50_408
*1002 FILLER_50_416
*1003 FILLER_51_137
*1004 FILLER_51_141
*1005 FILLER_51_144
*1006 FILLER_51_2
*1007 FILLER_51_208
*1008 FILLER_51_212
*1009 FILLER_51_215
*1010 FILLER_51_279
*1011 FILLER_51_283
*1012 FILLER_51_286
*1013 FILLER_51_350
*1014 FILLER_51_354
*1015 FILLER_51_357
*1016 FILLER_51_389
*1017 FILLER_51_405
*1018 FILLER_51_413
*1019 FILLER_51_417
*1020 FILLER_51_419
*1021 FILLER_51_66
*1022 FILLER_51_70
*1023 FILLER_51_73
*1024 FILLER_52_101
*1025 FILLER_52_105
*1026 FILLER_52_108
*1027 FILLER_52_172
*1028 FILLER_52_176
*1029 FILLER_52_179
*1030 FILLER_52_2
*1031 FILLER_52_243
*1032 FILLER_52_247
*1033 FILLER_52_250
*1034 FILLER_52_314
*1035 FILLER_52_318
*1036 FILLER_52_321
*1037 FILLER_52_34
*1038 FILLER_52_37
*1039 FILLER_52_385
*1040 FILLER_52_389
*1041 FILLER_52_392
*1042 FILLER_52_408
*1043 FILLER_52_416
*1044 FILLER_53_137
*1045 FILLER_53_141
*1046 FILLER_53_144
*1047 FILLER_53_2
*1048 FILLER_53_208
*1049 FILLER_53_212
*1050 FILLER_53_215
*1051 FILLER_53_279
*1052 FILLER_53_283
*1053 FILLER_53_286
*1054 FILLER_53_350
*1055 FILLER_53_354
*1056 FILLER_53_357
*1057 FILLER_53_389
*1058 FILLER_53_405
*1059 FILLER_53_413
*1060 FILLER_53_417
*1061 FILLER_53_419
*1062 FILLER_53_66
*1063 FILLER_53_70
*1064 FILLER_53_73
*1065 FILLER_54_104
*1066 FILLER_54_107
*1067 FILLER_54_139
*1068 FILLER_54_142
*1069 FILLER_54_174
*1070 FILLER_54_177
*1071 FILLER_54_2
*1072 FILLER_54_209
*1073 FILLER_54_212
*1074 FILLER_54_244
*1075 FILLER_54_247
*1076 FILLER_54_279
*1077 FILLER_54_282
*1078 FILLER_54_314
*1079 FILLER_54_317
*1080 FILLER_54_34
*1081 FILLER_54_349
*1082 FILLER_54_352
*1083 FILLER_54_37
*1084 FILLER_54_384
*1085 FILLER_54_387
*1086 FILLER_54_419
*1087 FILLER_54_69
*1088 FILLER_54_72
*1089 FILLER_5_137
*1090 FILLER_5_141
*1091 FILLER_5_144
*1092 FILLER_5_2
*1093 FILLER_5_208
*1094 FILLER_5_212
*1095 FILLER_5_215
*1096 FILLER_5_279
*1097 FILLER_5_283
*1098 FILLER_5_286
*1099 FILLER_5_350
*1100 FILLER_5_354
*1101 FILLER_5_357
*1102 FILLER_5_389
*1103 FILLER_5_405
*1104 FILLER_5_413
*1105 FILLER_5_417
*1106 FILLER_5_419
*1107 FILLER_5_66
*1108 FILLER_5_70
*1109 FILLER_5_73
*1110 FILLER_6_101
*1111 FILLER_6_105
*1112 FILLER_6_108
*1113 FILLER_6_172
*1114 FILLER_6_176
*1115 FILLER_6_179
*1116 FILLER_6_2
*1117 FILLER_6_243
*1118 FILLER_6_247
*1119 FILLER_6_250
*1120 FILLER_6_314
*1121 FILLER_6_318
*1122 FILLER_6_321
*1123 FILLER_6_34
*1124 FILLER_6_37
*1125 FILLER_6_385
*1126 FILLER_6_389
*1127 FILLER_6_392
*1128 FILLER_6_408
*1129 FILLER_6_416
*1130 FILLER_7_137
*1131 FILLER_7_141
*1132 FILLER_7_144
*1133 FILLER_7_2
*1134 FILLER_7_208
*1135 FILLER_7_212
*1136 FILLER_7_215
*1137 FILLER_7_279
*1138 FILLER_7_283
*1139 FILLER_7_286
*1140 FILLER_7_350
*1141 FILLER_7_354
*1142 FILLER_7_357
*1143 FILLER_7_37
*1144 FILLER_7_389
*1145 FILLER_7_405
*1146 FILLER_7_41
*1147 FILLER_7_413
*1148 FILLER_7_417
*1149 FILLER_7_419
*1150 FILLER_7_57
*1151 FILLER_7_65
*1152 FILLER_7_69
*1153 FILLER_7_73
*1154 FILLER_8_101
*1155 FILLER_8_105
*1156 FILLER_8_108
*1157 FILLER_8_172
*1158 FILLER_8_176
*1159 FILLER_8_179
*1160 FILLER_8_2
*1161 FILLER_8_243
*1162 FILLER_8_247
*1163 FILLER_8_250
*1164 FILLER_8_314
*1165 FILLER_8_318
*1166 FILLER_8_321
*1167 FILLER_8_34
*1168 FILLER_8_37
*1169 FILLER_8_385
*1170 FILLER_8_389
*1171 FILLER_8_392
*1172 FILLER_8_408
*1173 FILLER_8_416
*1174 FILLER_9_137
*1175 FILLER_9_141
*1176 FILLER_9_144
*1177 FILLER_9_2
*1178 FILLER_9_208
*1179 FILLER_9_212
*1180 FILLER_9_215
*1181 FILLER_9_279
*1182 FILLER_9_283
*1183 FILLER_9_286
*1184 FILLER_9_350
*1185 FILLER_9_354
*1186 FILLER_9_357
*1187 FILLER_9_389
*1188 FILLER_9_405
*1189 FILLER_9_413
*1190 FILLER_9_417
*1191 FILLER_9_419
*1192 FILLER_9_66
*1193 FILLER_9_70
*1194 FILLER_9_73
*1195 PHY_0
*1196 PHY_1
*1197 PHY_10
*1198 PHY_100
*1199 PHY_101
*1200 PHY_102
*1201 PHY_103
*1202 PHY_104
*1203 PHY_105
*1204 PHY_106
*1205 PHY_107
*1206 PHY_108
*1207 PHY_109
*1208 PHY_11
*1209 PHY_12
*1210 PHY_13
*1211 PHY_14
*1212 PHY_15
*1213 PHY_16
*1214 PHY_17
*1215 PHY_18
*1216 PHY_19
*1217 PHY_2
*1218 PHY_20
*1219 PHY_21
*1220 PHY_22
*1221 PHY_23
*1222 PHY_24
*1223 PHY_25
*1224 PHY_26
*1225 PHY_27
*1226 PHY_28
*1227 PHY_29
*1228 PHY_3
*1229 PHY_30
*1230 PHY_31
*1231 PHY_32
*1232 PHY_33
*1233 PHY_34
*1234 PHY_35
*1235 PHY_36
*1236 PHY_37
*1237 PHY_38
*1238 PHY_39
*1239 PHY_4
*1240 PHY_40
*1241 PHY_41
*1242 PHY_42
*1243 PHY_43
*1244 PHY_44
*1245 PHY_45
*1246 PHY_46
*1247 PHY_47
*1248 PHY_48
*1249 PHY_49
*1250 PHY_5
*1251 PHY_50
*1252 PHY_51
*1253 PHY_52
*1254 PHY_53
*1255 PHY_54
*1256 PHY_55
*1257 PHY_56
*1258 PHY_57
*1259 PHY_58
*1260 PHY_59
*1261 PHY_6
*1262 PHY_60
*1263 PHY_61
*1264 PHY_62
*1265 PHY_63
*1266 PHY_64
*1267 PHY_65
*1268 PHY_66
*1269 PHY_67
*1270 PHY_68
*1271 PHY_69
*1272 PHY_7
*1273 PHY_70
*1274 PHY_71
*1275 PHY_72
*1276 PHY_73
*1277 PHY_74
*1278 PHY_75
*1279 PHY_76
*1280 PHY_77
*1281 PHY_78
*1282 PHY_79
*1283 PHY_8
*1284 PHY_80
*1285 PHY_81
*1286 PHY_82
*1287 PHY_83
*1288 PHY_84
*1289 PHY_85
*1290 PHY_86
*1291 PHY_87
*1292 PHY_88
*1293 PHY_89
*1294 PHY_9
*1295 PHY_90
*1296 PHY_91
*1297 PHY_92
*1298 PHY_93
*1299 PHY_94
*1300 PHY_95
*1301 PHY_96
*1302 PHY_97
*1303 PHY_98
*1304 PHY_99
*1305 TAP_110
*1306 TAP_111
*1307 TAP_112
*1308 TAP_113
*1309 TAP_114
*1310 TAP_115
*1311 TAP_116
*1312 TAP_117
*1313 TAP_118
*1314 TAP_119
*1315 TAP_120
*1316 TAP_121
*1317 TAP_122
*1318 TAP_123
*1319 TAP_124
*1320 TAP_125
*1321 TAP_126
*1322 TAP_127
*1323 TAP_128
*1324 TAP_129
*1325 TAP_130
*1326 TAP_131
*1327 TAP_132
*1328 TAP_133
*1329 TAP_134
*1330 TAP_135
*1331 TAP_136
*1332 TAP_137
*1333 TAP_138
*1334 TAP_139
*1335 TAP_140
*1336 TAP_141
*1337 TAP_142
*1338 TAP_143
*1339 TAP_144
*1340 TAP_145
*1341 TAP_146
*1342 TAP_147
*1343 TAP_148
*1344 TAP_149
*1345 TAP_150
*1346 TAP_151
*1347 TAP_152
*1348 TAP_153
*1349 TAP_154
*1350 TAP_155
*1351 TAP_156
*1352 TAP_157
*1353 TAP_158
*1354 TAP_159
*1355 TAP_160
*1356 TAP_161
*1357 TAP_162
*1358 TAP_163
*1359 TAP_164
*1360 TAP_165
*1361 TAP_166
*1362 TAP_167
*1363 TAP_168
*1364 TAP_169
*1365 TAP_170
*1366 TAP_171
*1367 TAP_172
*1368 TAP_173
*1369 TAP_174
*1370 TAP_175
*1371 TAP_176
*1372 TAP_177
*1373 TAP_178
*1374 TAP_179
*1375 TAP_180
*1376 TAP_181
*1377 TAP_182
*1378 TAP_183
*1379 TAP_184
*1380 TAP_185
*1381 TAP_186
*1382 TAP_187
*1383 TAP_188
*1384 TAP_189
*1385 TAP_190
*1386 TAP_191
*1387 TAP_192
*1388 TAP_193
*1389 TAP_194
*1390 TAP_195
*1391 TAP_196
*1392 TAP_197
*1393 TAP_198
*1394 TAP_199
*1395 TAP_200
*1396 TAP_201
*1397 TAP_202
*1398 TAP_203
*1399 TAP_204
*1400 TAP_205
*1401 TAP_206
*1402 TAP_207
*1403 TAP_208
*1404 TAP_209
*1405 TAP_210
*1406 TAP_211
*1407 TAP_212
*1408 TAP_213
*1409 TAP_214
*1410 TAP_215
*1411 TAP_216
*1412 TAP_217
*1413 TAP_218
*1414 TAP_219
*1415 TAP_220
*1416 TAP_221
*1417 TAP_222
*1418 TAP_223
*1419 TAP_224
*1420 TAP_225
*1421 TAP_226
*1422 TAP_227
*1423 TAP_228
*1424 TAP_229
*1425 TAP_230
*1426 TAP_231
*1427 TAP_232
*1428 TAP_233
*1429 TAP_234
*1430 TAP_235
*1431 TAP_236
*1432 TAP_237
*1433 TAP_238
*1434 TAP_239
*1435 TAP_240
*1436 TAP_241
*1437 TAP_242
*1438 TAP_243
*1439 TAP_244
*1440 TAP_245
*1441 TAP_246
*1442 TAP_247
*1443 TAP_248
*1444 TAP_249
*1445 TAP_250
*1446 TAP_251
*1447 TAP_252
*1448 TAP_253
*1449 TAP_254
*1450 TAP_255
*1451 TAP_256
*1452 TAP_257
*1453 TAP_258
*1454 TAP_259
*1455 TAP_260
*1456 TAP_261
*1457 TAP_262
*1458 TAP_263
*1459 TAP_264
*1460 TAP_265
*1461 TAP_266
*1462 TAP_267
*1463 TAP_268
*1464 TAP_269
*1465 TAP_270
*1466 TAP_271
*1467 TAP_272
*1468 TAP_273
*1469 TAP_274
*1470 TAP_275
*1471 TAP_276
*1472 TAP_277
*1473 TAP_278
*1474 TAP_279
*1475 TAP_280
*1476 TAP_281
*1477 TAP_282
*1478 TAP_283
*1479 TAP_284
*1480 TAP_285
*1481 TAP_286
*1482 TAP_287
*1483 TAP_288
*1484 TAP_289
*1485 TAP_290
*1486 TAP_291
*1487 TAP_292
*1488 TAP_293
*1489 TAP_294
*1490 TAP_295
*1491 TAP_296
*1492 TAP_297
*1493 TAP_298
*1494 TAP_299
*1495 TAP_300
*1496 TAP_301
*1497 TAP_302
*1498 TAP_303
*1499 TAP_304
*1500 TAP_305
*1501 TAP_306
*1502 TAP_307
*1503 TAP_308
*1504 TAP_309
*1505 TAP_310
*1506 TAP_311
*1507 TAP_312
*1508 TAP_313
*1509 TAP_314
*1510 TAP_315
*1511 TAP_316
*1512 TAP_317
*1513 TAP_318
*1514 TAP_319
*1515 TAP_320
*1516 TAP_321
*1517 TAP_322
*1518 TAP_323
*1519 TAP_324
*1520 TAP_325
*1521 TAP_326
*1522 TAP_327
*1523 TAP_328
*1524 TAP_329
*1525 TAP_330
*1526 TAP_331
*1527 TAP_332
*1528 TAP_333
*1529 TAP_334
*1530 TAP_335
*1531 TAP_336
*1532 TAP_337
*1533 TAP_338
*1534 TAP_339
*1535 TAP_340
*1536 TAP_341
*1537 TAP_342
*1538 TAP_343
*1539 TAP_344
*1540 TAP_345
*1541 TAP_346
*1542 TAP_347
*1543 TAP_348
*1544 TAP_349
*1545 TAP_350
*1546 TAP_351
*1547 TAP_352
*1548 TAP_353
*1549 TAP_354
*1550 TAP_355
*1551 TAP_356
*1552 TAP_357
*1553 TAP_358
*1554 TAP_359
*1555 TAP_360
*1556 TAP_361
*1557 TAP_362
*1558 TAP_363
*1559 TAP_364
*1560 TAP_365
*1561 TAP_366
*1562 TAP_367
*1563 TAP_368
*1564 TAP_369
*1565 TAP_370
*1566 TAP_371
*1567 TAP_372
*1568 TAP_373
*1569 TAP_374
*1570 TAP_375
*1571 TAP_376
*1572 TAP_377
*1573 TAP_378
*1574 TAP_379
*1575 TAP_380
*1576 TAP_381
*1577 TAP_382
*1578 TAP_383
*1579 TAP_384
*1580 TAP_385
*1581 TAP_386
*1582 TAP_387
*1583 TAP_388
*1584 TAP_389
*1585 TAP_390
*1586 TAP_391
*1587 TAP_392
*1588 TAP_393
*1589 TAP_394
*1590 TAP_395
*1591 TAP_396
*1592 TAP_397
*1593 TAP_398
*1594 TAP_399
*1595 TAP_400
*1596 TAP_401
*1597 TAP_402
*1598 TAP_403
*1599 TAP_404
*1600 TAP_405
*1601 TAP_406
*1602 TAP_407
*1603 TAP_408
*1604 TAP_409
*1605 TAP_410
*1606 TAP_411
*1607 TAP_412
*1608 TAP_413
*1609 TAP_414
*1610 TAP_415
*1611 TAP_416
*1612 TAP_417
*1613 TAP_418
*1614 TAP_419
*1615 TAP_420
*1616 TAP_421
*1617 TAP_422
*1618 _1_
*1619 _2_
*1620 _3_
*1621 _4_
*1622 _5_
*1623 clkbuf_0_core_clock
*1624 clkbuf_0_net2
*1625 clkbuf_1_0__f_core_clock
*1626 clkbuf_1_0__f_net2
*1627 clkbuf_1_1__f_core_clock
*1628 clkbuf_1_1__f_net2
*1629 input1
*1630 output2
*1631 output3
*1632 output4

*PORTS
clock_out_a O
clock_out_b O
clock_out_c O
core_clock I
io_clock I
la_oenb I

*D_NET *1 0.000718722
*CONN
*P clock_out_a O
*I *1630:Z O *D gf180mcu_fd_sc_mcu7t5v0__dlyd_1
*CAP
1 clock_out_a 0.000359361
2 *1630:Z 0.000359361
*RES
1 *1630:Z clock_out_a 11.475 
*END

*D_NET *2 0.000398818
*CONN
*P clock_out_b O
*I *1631:Z O *D gf180mcu_fd_sc_mcu7t5v0__dlyd_1
*CAP
1 clock_out_b 0.000199409
2 *1631:Z 0.000199409
*RES
1 *1631:Z clock_out_b 10.665 
*END

*D_NET *3 0.000649406
*CONN
*P clock_out_c O
*I *1632:Z O *D gf180mcu_fd_sc_mcu7t5v0__dlyd_1
*CAP
1 clock_out_c 0.000324703
2 *1632:Z 0.000324703
*RES
1 *1632:Z clock_out_c 11.115 
*END

*D_NET *4 0.0125037
*CONN
*P core_clock I
*I *1623:I I *D gf180mcu_fd_sc_mcu7t5v0__clkbuf_16
*I *25:I I *D gf180mcu_fd_sc_mcu7t5v0__antenna
*CAP
1 core_clock 0.00571895
2 *1623:I 6.06043e-05
3 *25:I 0
4 *4:16 0.00577955
5 *1623:I *5:11 0.000171343
6 *4:16 *1618:I1 0.000584764
7 *4:16 *1618:S 0
8 *4:16 *5:11 0.000188478
*RES
1 core_clock *4:16 45.495 
2 *4:16 *25:I 9 
3 *4:16 *1623:I 9.99 
*END

*D_NET *5 0.0168642
*CONN
*P io_clock I
*I *21:I I *D gf180mcu_fd_sc_mcu7t5v0__antenna
*I *1618:I1 I *D gf180mcu_fd_sc_mcu7t5v0__mux2_2
*CAP
1 io_clock 0.00158561
2 *21:I 0
3 *1618:I1 0.000249491
4 *5:11 0.00608517
5 *5:10 0.00742128
6 *1618:I1 *1618:S 7.64908e-06
7 *5:11 *1620:D 7.12491e-05