*SPEF "ieee 1481-1999"
*DESIGN "controller_core"
*DATE "11:11:11 Fri 11 11, 1111"
*VENDOR "OpenRCX"
*PROGRAM "Parallel Extraction"
*VERSION "1.0"
*DESIGN_FLOW "NAME_SCOPE LOCAL" "PIN_CAP NONE"
*DIVIDER /
*DELIMITER :
*BUS_DELIMITER []
*T_UNIT 1 NS
*C_UNIT 1 PF
*R_UNIT 1 OHM
*L_UNIT 1 HENRY

*NAME_MAP
*1 clock
*2 clock_out[0]
*3 clock_out[1]
*4 clock_out[2]
*5 clock_out[3]
*6 clock_out[4]
*7 clock_out[5]
*8 clock_out[6]
*9 clock_out[7]
*10 clock_out[8]
*11 clock_out[9]
*12 col_select_left[0]
*13 col_select_left[1]
*14 col_select_left[2]
*15 col_select_left[3]
*16 col_select_left[4]
*17 col_select_left[5]
*18 col_select_right[0]
*19 col_select_right[1]
*20 col_select_right[2]
*21 col_select_right[3]
*22 col_select_right[4]
*23 col_select_right[5]
*24 data_out_left[0]
*25 data_out_left[10]
*26 data_out_left[11]
*27 data_out_left[12]
*28 data_out_left[13]
*29 data_out_left[14]
*30 data_out_left[15]
*31 data_out_left[1]
*32 data_out_left[2]
*33 data_out_left[3]
*34 data_out_left[4]
*35 data_out_left[5]
*36 data_out_left[6]
*37 data_out_left[7]
*38 data_out_left[8]
*39 data_out_left[9]
*40 data_out_right[0]
*41 data_out_right[10]
*42 data_out_right[11]
*43 data_out_right[12]
*44 data_out_right[13]
*45 data_out_right[14]
*46 data_out_right[15]
*47 data_out_right[1]
*48 data_out_right[2]
*49 data_out_right[3]
*50 data_out_right[4]
*51 data_out_right[5]
*52 data_out_right[6]
*53 data_out_right[7]
*54 data_out_right[8]
*55 data_out_right[9]
*56 inverter_select[0]
*57 inverter_select[1]
*58 inverter_select[2]
*59 inverter_select[3]
*60 inverter_select[4]
*61 inverter_select[5]
*62 inverter_select[6]
*63 inverter_select[7]
*64 inverter_select[8]
*65 inverter_select[9]
*66 io_control_trigger_in
*67 io_control_trigger_oeb
*68 io_driver_io_oeb[0]
*69 io_driver_io_oeb[10]
*70 io_driver_io_oeb[11]
*71 io_driver_io_oeb[12]
*72 io_driver_io_oeb[13]
*73 io_driver_io_oeb[14]
*74 io_driver_io_oeb[15]
*75 io_driver_io_oeb[16]
*76 io_driver_io_oeb[17]
*77 io_driver_io_oeb[18]
*78 io_driver_io_oeb[19]
*79 io_driver_io_oeb[1]
*80 io_driver_io_oeb[2]
*81 io_driver_io_oeb[3]
*82 io_driver_io_oeb[4]
*83 io_driver_io_oeb[5]
*84 io_driver_io_oeb[6]
*85 io_driver_io_oeb[7]
*86 io_driver_io_oeb[8]
*87 io_driver_io_oeb[9]
*88 io_latch_data_in
*89 io_latch_data_oeb
*90 io_reset_n_in
*91 io_reset_n_oeb
*92 io_update_cycle_complete_oeb
*93 io_update_cycle_complete_out
*94 la_data_in[0]
*95 la_data_in[10]
*96 la_data_in[11]
*97 la_data_in[12]
*98 la_data_in[13]
*99 la_data_in[14]
*100 la_data_in[15]
*101 la_data_in[16]
*102 la_data_in[17]
*103 la_data_in[1]
*104 la_data_in[2]
*105 la_data_in[3]
*106 la_data_in[4]
*107 la_data_in[5]
*108 la_data_in[6]
*109 la_data_in[7]
*110 la_data_in[8]
*111 la_data_in[9]
*112 la_oenb[0]
*113 la_oenb[10]
*114 la_oenb[11]
*115 la_oenb[12]
*116 la_oenb[13]
*117 la_oenb[14]
*118 la_oenb[15]
*119 la_oenb[16]
*120 la_oenb[17]
*121 la_oenb[1]
*122 la_oenb[2]
*123 la_oenb[3]
*124 la_oenb[4]
*125 la_oenb[5]
*126 la_oenb[6]
*127 la_oenb[7]
*128 la_oenb[8]
*129 la_oenb[9]
*130 mem_address_left[0]
*131 mem_address_left[1]
*132 mem_address_left[2]
*133 mem_address_left[3]
*134 mem_address_left[4]
*135 mem_address_left[5]
*136 mem_address_left[6]
*137 mem_address_left[7]
*138 mem_address_left[8]
*139 mem_address_left[9]
*140 mem_address_right[0]
*141 mem_address_right[1]
*142 mem_address_right[2]
*143 mem_address_right[3]
*144 mem_address_right[4]
*145 mem_address_right[5]
*146 mem_address_right[6]
*147 mem_address_right[7]
*148 mem_address_right[8]
*149 mem_address_right[9]
*150 mem_write_n[0]
*151 mem_write_n[1]
*152 mem_write_n[2]
*153 mem_write_n[3]
*154 mem_write_n[4]
*155 mem_write_n[5]
*156 mem_write_n[6]
*157 mem_write_n[7]
*158 mem_write_n[8]
*159 mem_write_n[9]
*160 output_active_left
*161 output_active_right
*162 row_col_select[0]
*163 row_col_select[1]
*164 row_col_select[2]
*165 row_col_select[3]
*166 row_col_select[4]
*167 row_col_select[5]
*168 row_col_select[6]
*169 row_col_select[7]
*170 row_col_select[8]
*171 row_col_select[9]
*172 row_select_left[0]
*173 row_select_left[1]
*174 row_select_left[2]
*175 row_select_left[3]
*176 row_select_left[4]
*177 row_select_left[5]
*178 row_select_right[0]
*179 row_select_right[1]
*180 row_select_right[2]
*181 row_select_right[3]
*182 row_select_right[4]
*183 row_select_right[5]
*184 spi_data[0]
*185 spi_data[10]
*186 spi_data[11]
*187 spi_data[12]
*188 spi_data[13]
*189 spi_data[14]
*190 spi_data[15]
*191 spi_data[16]
*192 spi_data[17]
*193 spi_data[18]
*194 spi_data[19]
*195 spi_data[1]
*196 spi_data[20]
*197 spi_data[21]
*198 spi_data[22]
*199 spi_data[23]
*200 spi_data[24]
*201 spi_data[25]
*202 spi_data[26]
*203 spi_data[27]
*204 spi_data[28]
*205 spi_data[29]
*206 spi_data[2]
*207 spi_data[30]
*208 spi_data[31]
*209 spi_data[3]
*210 spi_data[4]
*211 spi_data[5]
*212 spi_data[6]
*213 spi_data[7]
*214 spi_data[8]
*215 spi_data[9]
*216 spi_data_clock
*219 _0000_
*220 _0001_
*221 _0002_
*222 _0003_
*223 _0004_
*224 _0005_
*225 _0006_
*226 _0007_
*227 _0008_
*228 _0009_
*229 _0010_
*230 _0011_
*231 _0012_
*232 _0013_
*233 _0014_
*234 _0015_
*235 _0016_
*236 _0017_
*237 _0018_
*238 _0019_
*239 _0020_
*240 _0021_
*241 _0022_
*242 _0023_
*243 _0024_
*244 _0025_
*245 _0026_
*246 _0027_
*247 _0028_
*248 _0029_
*249 _0030_
*250 _0031_
*251 _0032_
*252 _0033_
*253 _0034_
*254 _0035_
*255 _0036_
*256 _0037_
*257 _0038_
*258 _0039_
*259 _0040_
*260 _0041_
*261 _0042_
*262 _0043_
*263 _0044_
*264 _0045_
*265 _0046_
*266 _0047_
*267 _0048_
*268 _0049_
*269 _0050_
*270 _0051_
*271 _0052_
*272 _0053_
*273 _0054_
*274 _0055_
*275 _0056_
*276 _0057_
*277 _0058_
*278 _0059_
*279 _0060_
*280 _0061_
*281 _0062_
*282 _0063_
*283 _0064_
*284 _0065_
*285 _0066_
*286 _0067_
*287 _0068_
*288 _0069_
*289 _0070_
*290 _0071_
*291 _0072_
*292 _0073_
*293 _0074_
*294 _0075_
*295 _0076_
*296 _0077_
*297 _0078_
*298 _0079_
*299 _0080_
*300 _0081_
*301 _0082_
*302 _0083_
*303 _0084_
*304 _0085_
*305 _0086_
*306 _0087_
*307 _0088_
*308 _0089_
*309 _0090_
*310 _0091_
*311 _0092_
*312 _0093_
*313 _0094_
*314 _0095_
*315 _0096_
*316 _0097_
*317 _0098_
*318 _0099_
*319 _0100_
*320 _0101_
*321 _0102_
*322 _0103_
*323 _0104_
*324 _0105_
*325 _0106_
*326 _0107_
*327 _0108_
*328 _0109_
*329 _0110_
*330 _0111_
*331 _0112_
*332 _0113_
*333 _0114_
*334 _0115_
*335 _0116_
*336 _0117_
*337 _0118_
*338 _0119_
*339 _0120_
*340 _0121_
*341 _0122_
*342 _0123_
*343 _0124_
*344 _0125_
*345 _0126_
*346 _0127_
*347 _0128_
*348 _0129_
*349 _0130_
*350 _0131_
*351 _0132_
*352 _0133_
*353 _0134_
*354 _0135_
*355 _0136_
*356 _0137_
*357 _0138_
*358 _0139_
*359 _0140_
*360 _0141_
*361 _0142_
*362 _0143_
*363 _0144_
*364 _0145_
*365 _0146_
*366 _0147_
*367 _0148_
*368 _0149_
*369 _0150_
*370 _0151_
*371 _0152_
*372 _0153_
*373 _0154_
*374 _0155_
*375 _0156_
*376 _0157_
*377 _0158_
*378 _0159_
*379 _0160_
*380 _0161_
*381 _0162_
*382 _0163_
*383 _0164_
*384 _0165_
*385 _0166_
*386 _0167_
*387 _0168_
*388 _0169_
*389 _0170_
*390 _0171_
*391 _0172_
*392 _0173_
*393 _0174_
*394 _0175_
*395 _0176_
*396 _0177_
*397 _0178_
*398 _0179_
*399 _0180_
*400 _0181_
*401 _0182_
*402 _0183_
*403 _0184_
*404 _0185_
*405 _0186_
*406 _0187_
*407 _0188_
*408 _0189_
*409 _0190_
*410 _0191_
*411 _0192_
*412 _0193_
*413 _0194_
*414 _0195_
*415 _0196_
*416 _0197_
*417 _0198_
*418 _0199_
*419 _0200_
*420 _0201_
*421 _0202_
*422 _0203_
*423 _0204_
*424 _0205_
*425 _0206_
*426 _0207_
*427 _0208_
*428 _0209_
*429 _0210_
*430 _0211_
*431 _0212_
*432 _0213_
*433 _0214_
*434 _0215_
*435 _0216_
*436 _0217_
*437 _0218_
*438 _0219_
*439 _0220_
*440 _0221_
*441 _0222_
*442 _0223_
*443 _0224_
*444 _0225_
*445 _0226_
*446 _0227_
*447 _0228_
*448 _0229_
*449 _0230_
*450 _0231_
*451 _0232_
*452 _0233_
*453 _0234_
*454 _0235_
*455 _0236_
*456 _0237_
*457 _0238_
*458 _0239_
*459 _0240_
*460 _0241_
*461 _0242_
*462 _0243_
*463 _0244_
*464 _0245_
*465 _0246_
*466 _0247_
*467 _0248_
*468 _0249_
*469 _0250_
*470 _0251_
*471 _0252_
*472 _0253_
*473 _0254_
*474 _0255_
*475 _0256_
*476 _0257_
*477 _0258_
*478 _0259_
*479 _0260_
*480 _0261_
*481 _0262_
*482 _0263_
*483 _0264_
*484 _0265_
*485 _0266_
*486 _0267_
*487 _0268_
*488 _0269_
*489 _0270_
*490 _0271_
*491 _0272_
*492 _0273_
*493 _0274_
*494 _0275_
*495 _0276_
*496 _0277_
*497 _0278_
*498 _0279_
*499 _0280_
*500 _0281_
*501 _0282_
*502 _0283_
*503 _0284_
*504 _0285_
*505 _0286_
*506 _0287_
*507 _0288_
*508 _0289_
*509 _0290_
*510 _0291_
*511 _0292_
*512 _0293_
*513 _0294_
*514 _0295_
*515 _0296_
*516 _0297_
*517 _0298_
*518 _0299_
*519 _0300_
*520 _0301_
*521 _0302_
*522 _0303_
*523 _0304_
*524 _0305_
*525 _0306_
*526 _0307_
*527 _0308_
*528 _0309_
*529 _0310_
*530 _0311_
*531 _0312_
*532 _0313_
*533 _0314_
*534 _0315_
*535 _0316_
*536 _0317_
*537 _0318_
*538 _0319_
*539 _0320_
*540 _0321_
*541 _0322_
*542 _0323_
*543 _0324_
*544 _0325_
*545 _0326_
*546 _0327_
*547 _0328_
*548 _0329_
*549 _0330_
*550 _0331_
*551 _0332_
*552 _0333_
*553 _0334_
*554 _0335_
*555 _0336_
*556 _0337_
*557 _0338_
*558 _0339_
*559 _0340_
*560 _0341_
*561 _0342_
*562 _0343_
*563 _0344_
*564 _0345_
*565 _0346_
*566 _0347_
*567 _0348_
*568 _0349_
*569 _0350_
*570 _0351_
*571 _0352_
*572 _0353_
*573 _0354_
*574 _0355_
*575 _0356_
*576 _0357_
*577 _0358_
*578 _0359_
*579 _0360_
*580 _0361_
*581 _0362_
*582 _0363_
*583 _0364_
*584 _0365_
*585 _0366_
*586 _0367_
*587 _0368_
*588 _0369_
*589 _0370_
*590 _0371_
*591 _0372_
*592 _0373_
*593 _0374_
*594 _0375_
*595 _0376_
*596 _0377_
*597 _0378_
*598 _0379_
*599 _0380_
*600 _0381_
*601 _0382_
*602 _0383_
*603 _0384_
*604 _0385_
*605 _0386_
*606 _0387_
*607 _0388_
*608 _0389_
*609 _0390_
*610 _0391_
*611 _0392_
*612 _0393_
*613 _0394_
*614 _0395_
*615 _0396_
*616 _0397_
*617 _0398_
*618 _0399_
*619 _0400_
*620 _0401_
*621 _0402_
*622 _0403_
*623 _0404_
*624 _0405_
*625 _0406_
*626 _0407_
*627 _0408_
*628 _0409_
*629 _0410_
*630 _0411_
*631 _0412_
*632 _0413_
*633 _0414_
*634 _0415_
*635 _0416_
*636 _0417_
*637 _0418_
*638 _0419_
*639 _0420_
*640 _0421_
*641 _0422_
*642 _0423_
*643 _0424_
*644 _0425_
*645 _0426_
*646 _0427_
*647 _0428_
*648 _0429_
*649 _0430_
*650 _0431_
*651 _0432_
*652 _0433_
*653 _0434_
*654 _0435_
*655 _0436_
*656 _0437_
*657 _0438_
*658 _0439_
*659 _0440_
*660 _0441_
*661 _0442_
*662 _0443_
*663 _0444_
*664 _0445_
*665 _0446_
*666 _0447_
*667 _0448_
*668 _0449_
*669 _0450_
*670 _0451_
*671 _0452_
*672 _0453_
*673 _0454_
*674 _0455_
*675 _0456_
*676 _0457_
*677 _0458_
*678 _0459_
*679 _0460_
*680 _0461_
*681 _0462_
*682 _0463_
*683 _0464_
*684 _0465_
*685 _0466_
*686 _0467_
*687 _0468_
*688 _0469_
*689 _0470_
*690 _0471_
*691 _0472_
*692 _0473_
*693 _0474_
*694 _0475_
*695 _0476_
*696 _0477_
*697 _0478_
*698 _0479_
*699 _0480_
*700 _0481_
*701 _0482_
*702 _0483_
*703 _0484_
*704 _0485_
*705 _0486_
*706 _0487_
*707 _0488_
*708 _0489_
*709 _0490_
*710 _0491_
*711 _0492_
*712 _0493_
*713 _0494_
*714 _0495_
*715 _0496_
*716 _0497_
*717 _0498_
*718 _0499_
*719 _0500_
*720 _0501_
*721 _0502_
*722 _0503_
*723 _0504_
*724 _0505_
*725 _0506_
*726 _0507_
*727 _0508_
*728 _0509_
*729 _0510_
*730 _0511_
*731 _0512_
*732 _0513_
*733 _0514_
*734 _0515_
*735 _0516_
*736 _0517_
*737 _0518_
*738 _0519_
*739 _0520_
*740 _0521_
*741 _0522_
*742 _0523_
*743 _0524_
*744 _0525_
*745 _0526_
*746 _0527_
*747 _0528_
*748 _0529_
*749 _0530_
*750 _0531_
*751 _0532_
*752 _0533_
*753 _0534_
*754 _0535_
*755 _0536_
*756 _0537_
*757 _0538_
*758 _0539_
*759 _0540_
*760 _0541_
*761 _0542_
*762 _0543_
*763 _0544_
*764 _0545_
*765 _0546_
*766 _0547_
*767 _0548_
*768 _0549_
*769 _0550_
*770 _0551_
*771 _0552_
*772 _0553_
*773 _0554_
*774 _0555_
*775 _0556_
*776 _0557_
*777 _0558_
*778 _0559_
*779 _0560_
*780 _0561_
*781 _0562_
*782 _0563_
*783 _0564_
*784 _0565_
*785 _0566_
*786 _0567_
*787 _0568_
*788 _0569_
*789 _0570_
*790 _0571_
*791 _0572_
*792 _0573_
*793 _0574_
*794 _0575_
*795 _0576_
*796 _0577_
*797 _0578_
*798 _0579_
*799 _0580_
*800 _0581_
*801 _0582_
*802 _0583_
*803 _0584_
*804 _0585_
*805 _0586_
*806 _0587_
*807 _0588_
*808 _0589_
*809 _0590_
*810 _0591_
*811 _0592_
*812 _0593_
*813 _0594_
*814 _0595_
*815 _0596_
*816 _0597_
*817 _0598_
*818 _0599_
*819 _0600_
*820 _0601_
*821 _0602_
*822 _0603_
*823 _0604_
*824 _0605_
*825 _0606_
*826 _0607_
*827 _0608_
*828 _0609_
*829 _0610_
*830 _0611_
*831 _0612_
*832 _0613_
*833 _0614_
*834 _0615_
*835 _0616_
*836 _0617_
*837 _0618_
*838 _0619_
*839 _0620_
*840 _0621_
*841 _0622_
*842 _0623_
*843 _0624_
*844 _0625_
*845 _0626_
*846 _0627_
*847 _0628_
*848 _0629_
*849 _0630_
*850 _0631_
*851 _0632_
*852 _0633_
*853 _0634_
*854 _0635_
*855 _0636_
*856 _0637_
*857 _0638_
*858 _0639_
*859 _0640_
*860 _0641_
*861 _0642_
*862 _0643_
*863 _0644_
*864 _0645_
*865 _0646_
*866 _0647_
*867 _0648_
*868 _0649_
*869 _0650_
*870 _0651_
*871 _0652_
*872 _0653_
*873 _0654_
*874 _0655_
*875 _0656_
*876 _0657_
*877 _0658_
*878 _0659_
*879 _0660_
*880 _0661_
*881 _0662_
*882 _0663_
*883 _0664_
*884 _0665_
*885 _0666_
*886 _0667_
*887 _0668_
*888 _0669_
*889 _0670_
*890 _0671_
*891 _0672_
*892 _0673_
*893 _0674_
*894 _0675_
*895 _0676_
*896 _0677_
*897 _0678_
*898 _0679_
*899 _0680_
*900 _0681_
*901 _0682_
*902 _0683_
*903 _0684_
*904 _0685_
*905 _0686_
*906 _0687_
*907 _0688_
*908 _0689_
*909 _0690_
*910 _0691_
*911 _0692_
*912 _0693_
*913 _0694_
*914 _0695_
*915 _0696_
*916 _0697_
*917 _0698_
*918 _0699_
*919 _0700_
*920 _0701_
*921 _0702_
*922 _0703_
*923 _0704_
*924 _0705_
*925 _0706_
*926 _0707_
*927 _0708_
*928 _0709_
*929 _0710_
*930 _0711_
*931 _0712_
*932 _0713_
*933 _0714_
*934 _0715_
*935 _0716_
*936 _0717_
*937 _0718_
*938 _0719_
*939 _0720_
*940 _0721_
*941 _0722_
*942 _0723_
*943 _0724_
*944 _0725_
*945 _0726_
*946 _0727_
*947 _0728_
*948 _0729_
*949 _0730_
*950 _0731_
*951 _0732_
*952 _0733_
*953 _0734_
*954 _0735_
*955 _0736_
*956 _0737_
*957 _0738_
*958 _0739_
*959 _0740_
*960 _0741_
*961 _0742_
*962 _0743_
*963 _0744_
*964 _0745_
*965 _0746_
*966 _0747_
*967 _0748_
*968 _0749_
*969 _0750_
*970 _0751_
*971 _0752_
*972 _0753_
*973 _0754_
*974 _0755_
*975 _0756_
*976 _0757_
*977 _0758_
*978 _0759_
*979 _0760_
*980 _0761_
*981 _0762_
*982 _0763_
*983 _0764_
*984 _0765_
*985 _0766_
*986 _0767_
*987 _0768_
*988 _0769_
*989 _0770_
*990 _0771_
*991 _0772_
*992 _0773_
*993 _0774_
*994 _0775_
*995 _0776_
*996 _0777_
*997 _0778_
*998 _0779_
*999 _0780_
*1000 _0781_
*1001 _0782_
*1002 _0783_
*1003 _0784_
*1004 _0785_
*1005 _0786_
*1006 _0787_
*1007 _0788_
*1008 _0789_
*1009 _0790_
*1010 _0791_
*1011 _0792_
*1012 _0793_
*1013 _0794_
*1014 _0795_
*1015 _0796_
*1016 _0797_
*1017 _0798_
*1018 _0799_
*1019 _0800_
*1020 _0801_
*1021 _0802_
*1022 _0803_
*1023 _0804_
*1024 _0805_
*1025 _0806_
*1026 _0807_
*1027 _0808_
*1028 _0809_
*1029 _0810_
*1030 _0811_
*1031 _0812_
*1032 _0813_
*1033 _0814_
*1034 _0815_
*1035 _0816_
*1036 _0817_
*1037 _0818_
*1038 _0819_
*1039 _0820_
*1040 _0821_
*1041 _0822_
*1042 _0823_
*1043 _0824_
*1044 _0825_
*1045 _0826_
*1046 _0827_
*1047 _0828_
*1048 _0829_
*1049 _0830_
*1050 _0831_
*1051 _0832_
*1052 _0833_
*1053 _0834_
*1054 _0835_
*1055 _0836_
*1056 _0837_
*1057 _0838_
*1058 _0839_
*1059 _0840_
*1060 _0841_
*1061 _0842_
*1062 _0843_
*1063 _0844_
*1064 _0845_
*1065 _0846_
*1066 _0847_
*1067 _0848_
*1068 _0849_
*1069 _0850_
*1070 _0851_
*1071 _0852_
*1072 _0853_
*1073 _0854_
*1074 _0855_
*1075 _0856_
*1076 _0857_
*1077 _0858_
*1078 _0859_
*1079 _0860_
*1080 _0861_
*1081 _0862_
*1082 _0863_
*1083 _0864_
*1084 _0865_
*1085 _0866_
*1086 _0867_
*1087 _0868_
*1088 _0869_
*1089 _0870_
*1090 _0871_
*1091 _0872_
*1092 _0873_
*1093 _0874_
*1094 _0875_
*1095 _0876_
*1096 _0877_
*1097 _0878_
*1098 _0879_
*1099 _0880_
*1100 _0881_
*1101 _0882_
*1102 _0883_
*1103 _0884_
*1104 _0885_
*1105 _0886_
*1106 _0887_
*1107 _0888_
*1108 _0889_
*1109 _0890_
*1110 _0891_
*1111 _0892_
*1112 _0893_
*1113 _0894_
*1114 _0895_
*1115 _0896_
*1116 _0897_
*1117 _0898_
*1118 _0899_
*1119 _0900_
*1120 _0901_
*1121 _0902_
*1122 _0903_
*1123 _0904_
*1124 _0905_
*1125 _0906_
*1126 _0907_
*1127 _0908_
*1128 _0909_
*1129 _0910_
*1130 _0911_
*1131 _0912_
*1132 _0913_
*1133 _0914_
*1134 _0915_
*1135 _0916_
*1136 _0917_
*1137 _0918_
*1138 _0919_
*1139 _0920_
*1140 _0921_
*1141 _0922_
*1142 _0923_
*1143 _0924_
*1144 _0925_
*1145 _0926_
*1146 _0927_
*1147 _0928_
*1148 _0929_
*1149 _0930_
*1150 _0931_
*1151 _0932_
*1152 _0933_
*1153 _0934_
*1154 _0935_
*1155 _0936_
*1156 _0937_
*1157 _0938_
*1158 _0939_
*1159 _0940_
*1160 _0941_
*1161 _0942_
*1162 _0943_
*1163 _0944_
*1164 _0945_
*1165 _0946_
*1166 _0947_
*1167 _0948_
*1168 _0949_
*1169 _0950_
*1170 _0951_
*1171 _0952_
*1172 _0953_
*1173 _0954_
*1174 _0955_
*1175 _0956_
*1176 _0957_
*1177 _0958_
*1178 _0959_
*1179 _0960_
*1180 _0961_
*1181 _0962_
*1182 _0963_
*1183 _0964_
*1184 _0965_
*1185 _0966_
*1186 _0967_
*1187 _0968_
*1188 _0969_
*1189 _0970_
*1190 _0971_
*1191 _0972_
*1192 _0973_
*1193 _0974_
*1194 _0975_
*1195 _0976_
*1196 _0977_
*1197 _0978_
*1198 _0979_
*1199 _0980_
*1200 _0981_
*1201 _0982_
*1202 _0983_
*1203 _0984_
*1204 _0985_
*1205 _0986_
*1206 _0987_
*1207 _0988_
*1208 _0989_
*1209 _0990_
*1210 _0991_
*1211 _0992_
*1212 _0993_
*1213 _0994_
*1214 _0995_
*1215 _0996_
*1216 _0997_
*1217 _0998_
*1218 _0999_
*1219 _1000_
*1220 _1001_
*1221 _1002_
*1222 _1003_
*1223 _1004_
*1224 _1005_
*1225 _1006_
*1226 _1007_
*1227 _1008_
*1228 _1009_
*1229 _1010_
*1230 _1011_
*1231 _1012_
*1232 _1013_
*1233 _1014_
*1234 _1015_
*1235 _1016_
*1236 _1017_
*1237 _1018_
*1238 _1019_
*1239 _1020_
*1240 _1021_
*1241 _1022_
*1242 _1023_
*1243 _1024_
*1244 _1025_
*1245 _1026_
*1246 _1027_
*1247 _1028_
*1248 _1029_
*1249 _1030_
*1250 _1031_
*1251 _1032_
*1252 _1033_
*1253 _1034_
*1254 _1035_
*1255 _1036_
*1256 _1037_
*1257 _1038_
*1258 _1039_
*1259 _1040_
*1260 _1041_
*1261 _1042_
*1262 _1043_
*1263 _1044_
*1264 _1045_
*1265 _1046_
*1266 _1047_
*1267 _1048_
*1268 _1049_
*1269 _1050_
*1270 _1051_
*1271 _1052_
*1272 _1053_
*1273 _1054_
*1274 _1055_
*1275 _1056_
*1276 _1057_
*1277 _1058_
*1278 _1059_
*1279 _1060_
*1280 _1061_
*1281 _1062_
*1282 _1063_
*1283 _1064_
*1284 _1065_
*1285 _1066_
*1286 _1067_
*1287 _1068_
*1288 _1069_
*1289 _1070_
*1290 _1071_
*1291 _1072_
*1292 _1073_
*1293 _1074_
*1294 _1075_
*1295 _1076_
*1296 _1077_
*1297 _1078_
*1298 _1079_
*1299 _1080_
*1300 _1081_
*1301 _1082_
*1302 _1083_
*1303 _1084_
*1304 _1085_
*1305 _1086_
*1306 _1087_
*1307 _1088_
*1308 _1089_
*1309 _1090_
*1310 _1091_
*1311 _1092_
*1312 _1093_
*1313 _1094_
*1314 _1095_
*1315 _1096_
*1316 _1097_
*1317 _1098_
*1318 _1099_
*1319 _1100_
*1320 _1101_
*1321 _1102_
*1322 _1103_
*1323 _1104_
*1324 _1105_
*1325 _1106_
*1326 _1107_
*1327 _1108_
*1328 _1109_
*1329 _1110_
*1330 _1111_
*1331 _1112_
*1332 _1113_
*1333 _1114_
*1334 _1115_
*1335 _1116_
*1336 _1117_
*1337 _1118_
*1338 _1119_
*1339 _1120_
*1340 _1121_
*1341 _1122_
*1342 _1123_
*1343 _1124_
*1344 _1125_
*1345 _1126_
*1346 _1127_
*1347 _1128_
*1348 _1129_
*1349 _1130_
*1350 _1131_
*1351 _1132_
*1352 _1133_
*1353 _1134_
*1354 _1135_
*1355 _1136_
*1356 _1137_
*1357 _1138_
*1358 _1139_
*1359 _1140_
*1360 _1141_
*1361 _1142_
*1362 _1143_
*1363 _1144_
*1364 _1145_
*1365 _1146_
*1366 _1147_
*1367 _1148_
*1368 _1149_
*1369 _1150_
*1370 _1151_
*1371 _1152_
*1372 _1153_
*1373 _1154_
*1374 _1155_
*1375 _1156_
*1376 _1157_
*1377 _1158_
*1378 _1159_
*1379 _1160_
*1380 _1161_
*1381 _1162_
*1382 _1163_
*1383 _1164_
*1384 _1165_
*1385 _1166_
*1386 _1167_
*1387 _1168_
*1388 _1169_
*1389 _1170_
*1390 _1171_
*1391 _1172_
*1392 _1173_
*1393 _1174_
*1394 _1175_
*1395 _1176_
*1396 _1177_
*1397 _1178_
*1398 _1179_
*1399 _1180_
*1400 _1181_
*1401 _1182_
*1402 _1183_
*1403 _1184_
*1404 _1185_
*1405 _1186_
*1406 _1187_
*1407 _1188_
*1408 _1189_
*1409 _1190_
*1410 _1191_
*1411 _1192_
*1412 _1193_
*1413 _1194_
*1414 _1195_
*1415 _1196_
*1416 _1197_
*1417 _1198_
*1418 _1199_
*1419 _1200_
*1420 _1201_
*1421 _1202_
*1422 _1203_
*1423 _1204_
*1424 _1205_
*1425 _1206_
*1426 _1207_
*1427 _1208_
*1428 _1209_
*1429 _1210_
*1430 _1211_
*1431 _1212_
*1432 _1213_
*1433 _1214_
*1434 _1215_
*1435 _1216_
*1436 _1217_
*1437 _1218_
*1438 _1219_
*1439 _1220_
*1440 _1221_
*1441 _1222_
*1442 _1223_
*1443 _1224_
*1444 _1225_
*1445 _1226_
*1446 _1227_
*1447 _1228_
*1448 _1229_
*1449 _1230_
*1450 _1231_
*1451 _1232_
*1452 _1233_
*1453 _1234_
*1454 _1235_
*1455 _1236_
*1456 _1237_
*1457 _1238_
*1458 _1239_
*1459 _1240_
*1460 _1241_
*1461 _1242_
*1462 _1243_
*1463 _1244_
*1464 _1245_
*1465 _1246_
*1466 _1247_
*1467 _1248_
*1468 _1249_
*1469 _1250_
*1470 _1251_
*1471 _1252_
*1472 _1253_
*1473 _1254_
*1474 _1255_
*1475 _1256_
*1476 _1257_
*1477 _1258_
*1478 _1259_
*1479 _1260_
*1480 _1261_
*1481 _1262_
*1482 _1263_
*1483 _1264_
*1484 _1265_
*1485 _1266_
*1486 _1267_
*1487 _1268_
*1488 _1269_
*1489 _1270_
*1490 _1271_
*1491 _1272_
*1492 _1273_
*1493 _1274_
*1494 _1275_
*1495 _1276_
*1496 _1277_
*1497 _1278_
*1498 _1279_
*1499 _1280_
*1500 _1281_
*1501 _1282_
*1502 _1283_
*1503 _1284_
*1504 _1285_
*1505 _1286_
*1506 _1287_
*1507 _1288_
*1508 _1289_
*1509 _1290_
*1510 _1291_
*1511 _1292_
*1512 _1293_
*1513 _1294_
*1514 _1295_
*1515 _1296_
*1516 _1297_
*1517 _1298_
*1518 _1299_
*1519 _1300_
*1520 _1301_
*1521 _1302_
*1522 _1303_
*1523 _1304_
*1524 _1305_
*1525 _1306_
*1526 _1307_
*1527 _1308_
*1528 _1309_
*1529 _1310_
*1530 _1311_
*1531 _1312_
*1532 _1313_
*1533 _1314_
*1534 _1315_
*1535 _1316_
*1536 _1317_
*1537 _1318_
*1538 _1319_
*1539 _1320_
*1540 _1321_
*1541 _1322_
*1542 _1323_
*1543 _1324_
*1544 _1325_
*1545 _1326_
*1546 _1327_
*1547 _1328_
*1548 _1329_
*1549 _1330_
*1550 _1331_
*1551 _1332_
*1552 _1333_
*1553 _1334_
*1554 _1335_
*1555 _1336_
*1556 _1337_
*1557 _1338_
*1558 _1339_
*1559 _1340_
*1560 _1341_
*1561 _1342_
*1562 _1343_
*1563 _1344_
*1564 _1345_
*1565 _1346_
*1566 _1347_
*1567 _1348_
*1568 _1349_
*1569 _1350_
*1570 _1351_
*1571 _1352_
*1572 _1353_
*1573 _1354_
*1574 _1355_
*1575 _1356_
*1576 _1357_
*1577 _1358_
*1578 _1359_
*1579 _1360_
*1580 _1361_
*1581 _1362_
*1582 _1363_
*1583 _1364_
*1584 _1365_
*1585 _1366_
*1586 _1367_
*1587 _1368_
*1588 _1369_
*1589 _1370_
*1590 _1371_
*1591 _1372_
*1592 _1373_
*1593 _1374_
*1594 _1375_
*1595 _1376_
*1596 _1377_
*1597 _1378_
*1598 _1379_
*1599 _1380_
*1600 _1381_
*1601 _1382_
*1602 _1383_
*1603 _1384_
*1604 _1385_
*1605 _1386_
*1606 _1387_
*1607 _1388_
*1608 _1389_
*1609 _1390_
*1610 _1391_
*1611 _1392_
*1612 _1393_
*1613 _1394_
*1614 _1395_
*1615 _1396_
*1616 _1397_
*1617 _1398_
*1618 _1399_
*1619 _1400_
*1620 _1401_
*1621 _1402_
*1622 _1403_
*1623 _1404_
*1624 _1405_
*1625 _1406_
*1626 _1407_
*1627 _1408_
*1628 _1409_
*1629 _1410_
*1630 _1411_
*1631 _1412_
*1632 _1413_
*1633 _1414_
*1634 clknet_0_clock
*1635 clknet_2_0__leaf_clock
*1636 clknet_2_1__leaf_clock
*1637 clknet_2_2__leaf_clock
*1638 clknet_2_3__leaf_clock
*1639 clknet_leaf_0_clock
*1640 clknet_leaf_10_clock
*1641 clknet_leaf_11_clock
*1642 clknet_leaf_12_clock
*1643 clknet_leaf_13_clock
*1644 clknet_leaf_14_clock
*1645 clknet_leaf_15_clock
*1646 clknet_leaf_16_clock
*1647 clknet_leaf_17_clock
*1648 clknet_leaf_18_clock
*1649 clknet_leaf_19_clock
*1650 clknet_leaf_1_clock
*1651 clknet_leaf_20_clock
*1652 clknet_leaf_21_clock
*1653 clknet_leaf_22_clock
*1654 clknet_leaf_23_clock
*1655 clknet_leaf_24_clock
*1656 clknet_leaf_25_clock
*1657 clknet_leaf_26_clock
*1658 clknet_leaf_27_clock
*1659 clknet_leaf_28_clock
*1660 clknet_leaf_29_clock
*1661 clknet_leaf_2_clock
*1662 clknet_leaf_30_clock
*1663 clknet_leaf_31_clock
*1664 clknet_leaf_32_clock
*1665 clknet_leaf_33_clock
*1666 clknet_leaf_34_clock
*1667 clknet_leaf_35_clock
*1668 clknet_leaf_36_clock
*1669 clknet_leaf_3_clock
*1670 clknet_leaf_4_clock
*1671 clknet_leaf_5_clock
*1672 clknet_leaf_6_clock
*1673 clknet_leaf_7_clock
*1674 clknet_leaf_8_clock
*1675 clknet_leaf_9_clock
*1676 control_trigger
*1677 control_trigger_sync\[0\]
*1678 control_trigger_sync\[1\]
*1679 latch_data
*1680 latch_data_sync\[0\]
*1681 latch_data_sync\[1\]
*1682 net1
*1683 net10
*1684 net100
*1685 net101
*1686 net102
*1687 net103
*1688 net104
*1689 net105
*1690 net106
*1691 net107
*1692 net108
*1693 net109
*1694 net11
*1695 net110
*1696 net111
*1697 net112
*1698 net113
*1699 net114
*1700 net115
*1701 net116
*1702 net117
*1703 net118
*1704 net119
*1705 net12
*1706 net120
*1707 net121
*1708 net122
*1709 net123
*1710 net124
*1711 net125
*1712 net126
*1713 net127
*1714 net128
*1715 net129
*1716 net13
*1717 net130
*1718 net131
*1719 net132
*1720 net133
*1721 net134
*1722 net135
*1723 net136
*1724 net137
*1725 net138
*1726 net139
*1727 net14
*1728 net140
*1729 net141
*1730 net142
*1731 net143
*1732 net144
*1733 net145
*1734 net146
*1735 net147
*1736 net148
*1737 net149
*1738 net15
*1739 net150
*1740 net151
*1741 net152
*1742 net153
*1743 net154
*1744 net155
*1745 net156
*1746 net157
*1747 net158
*1748 net159
*1749 net16
*1750 net160
*1751 net161
*1752 net162
*1753 net163
*1754 net164
*1755 net165
*1756 net166
*1757 net167
*1758 net168
*1759 net169
*1760 net17
*1761 net170
*1762 net171
*1763 net172
*1764 net173
*1765 net174
*1766 net175
*1767 net176
*1768 net177
*1769 net178
*1770 net179
*1771 net18
*1772 net180
*1773 net181
*1774 net182
*1775 net183
*1776 net184
*1777 net185
*1778 net186
*1779 net187
*1780 net188
*1781 net189
*1782 net19
*1783 net190
*1784 net191
*1785 net192
*1786 net193
*1787 net194
*1788 net195
*1789 net196
*1790 net197
*1791 net198
*1792 net199
*1793 net2
*1794 net20
*1795 net200
*1796 net201
*1797 net202
*1798 net203
*1799 net204
*1800 net205
*1801 net206
*1802 net207
*1803 net208
*1804 net209
*1805 net21
*1806 net210
*1807 net211
*1808 net212
*1809 net213
*1810 net214
*1811 net215
*1812 net216
*1813 net217
*1814 net218
*1815 net219
*1816 net22
*1817 net220
*1818 net221
*1819 net222
*1820 net223
*1821 net224
*1822 net225
*1823 net226
*1824 net227
*1825 net228
*1826 net229
*1827 net23
*1828 net230
*1829 net231
*1830 net232
*1831 net233
*1832 net234
*1833 net235
*1834 net236
*1835 net237
*1836 net238
*1837 net239
*1838 net24
*1839 net240
*1840 net241
*1841 net242
*1842 net243
*1843 net244
*1844 net245
*1845 net246
*1846 net247
*1847 net248
*1848 net249
*1849 net25
*1850 net250
*1851 net251
*1852 net252
*1853 net253
*1854 net254
*1855 net255
*1856 net256
*1857 net257
*1858 net258
*1859 net259
*1860 net26
*1861 net260
*1862 net261
*1863 net262
*1864 net263
*1865 net264
*1866 net265
*1867 net266
*1868 net267
*1869 net268
*1870 net269
*1871 net27
*1872 net270
*1873 net271
*1874 net272
*1875 net273
*1876 net274
*1877 net275
*1878 net276
*1879 net277
*1880 net278
*1881 net279
*1882 net28
*1883 net280
*1884 net281
*1885 net282
*1886 net283
*1887 net284
*1888 net285
*1889 net286
*1890 net287
*1891 net288
*1892 net289
*1893 net29
*1894 net290
*1895 net291
*1896 net292
*1897 net293
*1898 net294
*1899 net295
*1900 net3
*1901 net30
*1902 net31
*1903 net32
*1904 net33
*1905 net34
*1906 net35
*1907 net36
*1908 net37
*1909 net38
*1910 net39
*1911 net4
*1912 net40
*1913 net41
*1914 net42
*1915 net43
*1916 net44
*1917 net45
*1918 net46
*1919 net47
*1920 net48
*1921 net49
*1922 net5
*1923 net50
*1924 net51
*1925 net52
*1926 net53
*1927 net54
*1928 net55
*1929 net56
*1930 net57
*1931 net58
*1932 net59
*1933 net6
*1934 net60
*1935 net61
*1936 net62
*1937 net63
*1938 net64
*1939 net65
*1940 net66
*1941 net67
*1942 net68
*1943 net69
*1944 net7
*1945 net70
*1946 net71
*1947 net72
*1948 net73
*1949 net74
*1950 net75
*1951 net76
*1952 net77
*1953 net78
*1954 net79
*1955 net8
*1956 net80
*1957 net81
*1958 net82
*1959 net83
*1960 net84
*1961 net85
*1962 net86
*1963 net87
*1964 net88
*1965 net89
*1966 net9
*1967 net90
*1968 net91
*1969 net92
*1970 net93
*1971 net94
*1972 net95
*1973 net96
*1974 net97
*1975 net98
*1976 net99
*1977 reset_n
*1978 reset_n_sync\[0\]
*1979 reset_n_sync\[1\]
*1980 spi_data_crossing\[0\]\.A
*1981 spi_data_crossing\[0\]\.data_sync
*1982 spi_data_crossing\[10\]\.A
*1983 spi_data_crossing\[10\]\.data_sync
*1984 spi_data_crossing\[11\]\.A
*1985 spi_data_crossing\[11\]\.data_sync
*1986 spi_data_crossing\[12\]\.A
*1987 spi_data_crossing\[12\]\.data_sync
*1988 spi_data_crossing\[13\]\.A
*1989 spi_data_crossing\[13\]\.data_sync
*1990 spi_data_crossing\[14\]\.A
*1991 spi_data_crossing\[14\]\.data_sync
*1992 spi_data_crossing\[15\]\.A
*1993 spi_data_crossing\[15\]\.data_sync
*1994 spi_data_crossing\[16\]\.A
*1995 spi_data_crossing\[16\]\.data_sync
*1996 spi_data_crossing\[17\]\.A
*1997 spi_data_crossing\[17\]\.data_sync
*1998 spi_data_crossing\[18\]\.A
*1999 spi_data_crossing\[18\]\.data_sync
*2000 spi_data_crossing\[19\]\.A
*2001 spi_data_crossing\[19\]\.data_sync
*2002 spi_data_crossing\[1\]\.A
*2003 spi_data_crossing\[1\]\.data_sync
*2004 spi_data_crossing\[20\]\.A
*2005 spi_data_crossing\[20\]\.data_sync
*2006 spi_data_crossing\[21\]\.A
*2007 spi_data_crossing\[21\]\.data_sync
*2008 spi_data_crossing\[22\]\.A
*2009 spi_data_crossing\[22\]\.data_sync
*2010 spi_data_crossing\[23\]\.A
*2011 spi_data_crossing\[23\]\.data_sync
*2012 spi_data_crossing\[24\]\.A
*2013 spi_data_crossing\[24\]\.data_sync
*2014 spi_data_crossing\[25\]\.A
*2015 spi_data_crossing\[25\]\.data_sync
*2016 spi_data_crossing\[26\]\.A
*2017 spi_data_crossing\[26\]\.data_sync
*2018 spi_data_crossing\[27\]\.A
*2019 spi_data_crossing\[27\]\.data_sync
*2020 spi_data_crossing\[28\]\.A
*2021 spi_data_crossing\[28\]\.data_sync
*2022 spi_data_crossing\[29\]\.A
*2023 spi_data_crossing\[29\]\.data_sync
*2024 spi_data_crossing\[2\]\.A
*2025 spi_data_crossing\[2\]\.data_sync
*2026 spi_data_crossing\[30\]\.A
*2027 spi_data_crossing\[30\]\.data_sync
*2028 spi_data_crossing\[31\]\.A
*2029 spi_data_crossing\[31\]\.data_sync
*2030 spi_data_crossing\[3\]\.A
*2031 spi_data_crossing\[3\]\.data_sync
*2032 spi_data_crossing\[4\]\.A
*2033 spi_data_crossing\[4\]\.data_sync
*2034 spi_data_crossing\[5\]\.A
*2035 spi_data_crossing\[5\]\.data_sync
*2036 spi_data_crossing\[6\]\.A
*2037 spi_data_crossing\[6\]\.data_sync
*2038 spi_data_crossing\[7\]\.A
*2039 spi_data_crossing\[7\]\.data_sync
*2040 spi_data_crossing\[8\]\.A
*2041 spi_data_crossing\[8\]\.data_sync
*2042 spi_data_crossing\[9\]\.A
*2043 spi_data_crossing\[9\]\.data_sync
*2044 u0\.cmd\[0\]
*2045 u0\.cmd\[10\]
*2046 u0\.cmd\[11\]
*2047 u0\.cmd\[12\]