*SPEF "ieee 1481-1999"
*DESIGN "spi_core"
*DATE "11:11:11 Fri 11 11, 1111"
*VENDOR "OpenRCX"
*PROGRAM "Parallel Extraction"
*VERSION "1.0"
*DESIGN_FLOW "NAME_SCOPE LOCAL" "PIN_CAP NONE"
*DIVIDER /
*DELIMITER :
*BUS_DELIMITER []
*T_UNIT 1 NS
*C_UNIT 1 PF
*R_UNIT 1 OHM
*L_UNIT 1 HENRY

*NAME_MAP
*1 clock
*2 clock_out
*3 data_out[0]
*4 data_out[10]
*5 data_out[11]
*6 data_out[12]
*7 data_out[13]
*8 data_out[14]
*9 data_out[15]
*10 data_out[16]
*11 data_out[17]
*12 data_out[18]
*13 data_out[19]
*14 data_out[1]
*15 data_out[20]
*16 data_out[21]
*17 data_out[22]
*18 data_out[23]
*19 data_out[24]
*20 data_out[25]
*21 data_out[26]
*22 data_out[27]
*23 data_out[28]
*24 data_out[29]
*25 data_out[2]
*26 data_out[30]
*27 data_out[31]
*28 data_out[3]
*29 data_out[4]
*30 data_out[5]
*31 data_out[6]
*32 data_out[7]
*33 data_out[8]
*34 data_out[9]
*35 la_data_in[0]
*36 la_data_in[1]
*37 la_data_in[2]
*38 la_data_in[3]
*39 net38
*40 net39
*41 net40
*42 net41
*43 miso
*44 net45
*45 mosi
*46 net42
*47 sclk
*48 net43
*49 ss_n
*50 net44
*53 _000_
*54 _001_
*55 _002_
*56 _003_
*57 _004_
*58 _005_
*59 _006_
*60 _007_
*61 _008_
*62 _009_
*63 _010_
*64 _011_
*65 _012_
*66 _013_
*67 _014_
*68 _015_
*69 _016_
*70 _017_
*71 _018_
*72 _019_
*73 _020_
*74 _021_
*75 _022_
*76 _023_
*77 _024_
*78 _025_
*79 _026_
*80 _027_
*81 _028_
*82 _029_
*83 _030_
*84 _031_
*85 _032_
*86 _033_
*87 _034_
*88 _035_
*89 _036_
*90 _037_
*91 _038_
*92 _039_
*93 _040_
*94 _041_
*95 _042_
*96 _043_
*97 _044_
*98 _045_
*99 _046_
*100 _047_
*101 _048_
*102 _049_
*103 _050_
*104 _051_
*105 _052_
*106 _053_
*107 _054_
*108 _055_
*109 _056_
*110 _057_
*111 _058_
*112 _059_
*113 _060_
*114 _061_
*115 _062_
*116 _063_
*117 _064_
*118 _065_
*119 _066_
*120 _067_
*121 _068_
*122 _069_
*123 _070_
*124 _071_
*125 _072_
*126 _073_
*127 _074_
*128 _075_
*129 _076_
*130 _077_
*131 clknet_0_clock
*132 clknet_2_0__leaf_clock
*133 clknet_2_1__leaf_clock
*134 clknet_2_2__leaf_clock
*135 clknet_2_3__leaf_clock
*136 mosi_reg\[0\]
*137 mosi_reg\[1\]
*138 mosi_reg\[2\]
*139 net1
*140 net10
*141 net11
*142 net12
*143 net13
*144 net14
*145 net15
*146 net16
*147 net17
*148 net18
*149 net19
*150 net2
*151 net20
*152 net21
*153 net22
*154 net23
*155 net24
*156 net25
*157 net26
*158 net27
*159 net28
*160 net29
*161 net3
*162 net30
*163 net31
*164 net32
*165 net33
*166 net34
*167 net35
*168 net36
*169 net37
*170 net4
*171 net5
*172 net6
*173 net7
*174 net8
*175 net9
*176 sclk_reg\[0\]
*177 sclk_reg\[1\]
*178 sclk_reg\[2\]
*179 ss_n_reg\[0\]
*180 ss_n_reg\[1\]
*181 ss_n_reg\[2\]
*182 ANTENNA__078__A2
*183 ANTENNA__081__A2
*184 ANTENNA__082__I
*185 ANTENNA__083__I
*186 ANTENNA__084__I0
*187 ANTENNA__084__I1
*188 ANTENNA__086__I0
*189 ANTENNA__086__I1
*190 ANTENNA__088__I0
*191 ANTENNA__090__I1
*192 ANTENNA__092__I
*193 ANTENNA__093__I0
*194 ANTENNA__101__I
*195 ANTENNA__110__I
*196 ANTENNA__119__I
*197 ANTENNA__120__I
*198 ANTENNA__129__I
*199 ANTENNA__130__S
*200 ANTENNA__132__S
*201 ANTENNA__134__S
*202 ANTENNA__136__I1
*203 ANTENNA__136__S
*204 ANTENNA__138__I
*205 ANTENNA__139__I0
*206 ANTENNA__141__I1
*207 ANTENNA__143__I0
*208 ANTENNA__143__I1
*209 ANTENNA__145__I0
*210 ANTENNA__145__I1
*211 ANTENNA__147__I
*212 ANTENNA__148__I0
*213 ANTENNA__148__I1
*214 ANTENNA__150__I0
*215 ANTENNA__150__I1
*216 ANTENNA__152__I0
*217 ANTENNA__152__I1
*218 ANTENNA__154__I0
*219 ANTENNA__154__I1
*220 ANTENNA__156__CLK
*221 ANTENNA__157__CLK
*222 ANTENNA__158__CLK
*223 ANTENNA__158__D
*224 ANTENNA__159__CLK
*225 ANTENNA__160__CLK
*226 ANTENNA__160__D
*227 ANTENNA__161__CLK
*228 ANTENNA__162__CLK
*229 ANTENNA__163__CLK
*230 ANTENNA__164__CLK
*231 ANTENNA__164__D
*232 ANTENNA__165__CLK
*233 ANTENNA__166__CLK
*234 ANTENNA__167__CLK
*235 ANTENNA__168__CLK
*236 ANTENNA__169__CLK
*237 ANTENNA__170__CLK
*238 ANTENNA__171__CLK
*239 ANTENNA__172__CLK
*240 ANTENNA__173__CLK
*241 ANTENNA__174__CLK
*242 ANTENNA__175__CLK
*243 ANTENNA__176__CLK
*244 ANTENNA__177__CLK
*245 ANTENNA__178__CLK
*246 ANTENNA__179__CLK
*247 ANTENNA__180__CLK
*248 ANTENNA__181__CLK
*249 ANTENNA__182__CLK
*250 ANTENNA__183__CLK
*251 ANTENNA__184__CLK
*252 ANTENNA__185__CLK
*253 ANTENNA__186__CLK
*254 ANTENNA__187__CLK
*255 ANTENNA__188__CLK
*256 ANTENNA__189__CLK
*257 ANTENNA__190__CLK
*258 ANTENNA__191__CLK
*259 ANTENNA__192__CLK
*260 ANTENNA__193__CLK
*261 ANTENNA__194__CLK
*262 ANTENNA__195__CLK
*263 ANTENNA__196__CLK
*264 ANTENNA__205__I
*265 ANTENNA__206__I
*266 ANTENNA_clkbuf_0_clock_I
*267 ANTENNA_clkbuf_2_0__f_clock_I
*268 ANTENNA_clkbuf_2_1__f_clock_I
*269 ANTENNA_clkbuf_2_2__f_clock_I
*270 ANTENNA_clkbuf_2_3__f_clock_I
*271 ANTENNA_input1_I
*272 ANTENNA_input2_I
*273 ANTENNA_input3_I
*274 ANTENNA_output16_I
*275 ANTENNA_output20_I
*276 ANTENNA_output22_I
*277 ANTENNA_output23_I
*278 ANTENNA_output24_I
*279 ANTENNA_output25_I
*280 ANTENNA_output26_I
*281 ANTENNA_output28_I
*282 ANTENNA_output29_I
*283 ANTENNA_output30_I
*284 ANTENNA_output5_I
*285 FILLER_0_104
*286 FILLER_0_107
*287 FILLER_0_111
*288 FILLER_0_117
*289 FILLER_0_133
*290 FILLER_0_137
*291 FILLER_0_139
*292 FILLER_0_142
*293 FILLER_0_158
*294 FILLER_0_166
*295 FILLER_0_174
*296 FILLER_0_177
*297 FILLER_0_19
*298 FILLER_0_2
*299 FILLER_0_209
*300 FILLER_0_212
*301 FILLER_0_217
*302 FILLER_0_233
*303 FILLER_0_241
*304 FILLER_0_247
*305 FILLER_0_279
*306 FILLER_0_282
*307 FILLER_0_314
*308 FILLER_0_317
*309 FILLER_0_349
*310 FILLER_0_352
*311 FILLER_0_368
*312 FILLER_0_37
*313 FILLER_0_376
*314 FILLER_0_380
*315 FILLER_0_384
*316 FILLER_0_387
*317 FILLER_0_402
*318 FILLER_0_418
*319 FILLER_0_53
*320 FILLER_0_61
*321 FILLER_0_63
*322 FILLER_0_68
*323 FILLER_0_72
*324 FILLER_10_101
*325 FILLER_10_105
*326 FILLER_10_108
*327 FILLER_10_172
*328 FILLER_10_176
*329 FILLER_10_179
*330 FILLER_10_2
*331 FILLER_10_243
*332 FILLER_10_247
*333 FILLER_10_250
*334 FILLER_10_314
*335 FILLER_10_318
*336 FILLER_10_321
*337 FILLER_10_34
*338 FILLER_10_353
*339 FILLER_10_369
*340 FILLER_10_37
*341 FILLER_10_373
*342 FILLER_10_381
*343 FILLER_10_389
*344 FILLER_10_392
*345 FILLER_10_408
*346 FILLER_10_416
*347 FILLER_11_105
*348 FILLER_11_135
*349 FILLER_11_139
*350 FILLER_11_141
*351 FILLER_11_144
*352 FILLER_11_152
*353 FILLER_11_156
*354 FILLER_11_2
*355 FILLER_11_208
*356 FILLER_11_212
*357 FILLER_11_215
*358 FILLER_11_279
*359 FILLER_11_283
*360 FILLER_11_286
*361 FILLER_11_288
*362 FILLER_11_291
*363 FILLER_11_343
*364 FILLER_11_351
*365 FILLER_11_357
*366 FILLER_11_373
*367 FILLER_11_376
*368 FILLER_11_407
*369 FILLER_11_415
*370 FILLER_11_419
*371 FILLER_11_66
*372 FILLER_11_70
*373 FILLER_11_73
*374 FILLER_12_101
*375 FILLER_12_105
*376 FILLER_12_108
*377 FILLER_12_172
*378 FILLER_12_176
*379 FILLER_12_179
*380 FILLER_12_2
*381 FILLER_12_243
*382 FILLER_12_247
*383 FILLER_12_250
*384 FILLER_12_314
*385 FILLER_12_318
*386 FILLER_12_321
*387 FILLER_12_34
*388 FILLER_12_37
*389 FILLER_12_385
*390 FILLER_12_389
*391 FILLER_12_392
*392 FILLER_12_407
*393 FILLER_12_415
*394 FILLER_12_419
*395 FILLER_13_114
*396 FILLER_13_118
*397 FILLER_13_134
*398 FILLER_13_144
*399 FILLER_13_152
*400 FILLER_13_158
*401 FILLER_13_189
*402 FILLER_13_193
*403 FILLER_13_2
*404 FILLER_13_209
*405 FILLER_13_215
*406 FILLER_13_279
*407 FILLER_13_283
*408 FILLER_13_286
*409 FILLER_13_34
*410 FILLER_13_350
*411 FILLER_13_354
*412 FILLER_13_357
*413 FILLER_13_373
*414 FILLER_13_38
*415 FILLER_13_381
*416 FILLER_13_385
*417 FILLER_13_387
*418 FILLER_13_40
*419 FILLER_13_402
*420 FILLER_13_418
*421 FILLER_13_70
*422 FILLER_13_73
*423 FILLER_13_76
*424 FILLER_13_80
*425 FILLER_13_83
*426 FILLER_14_101
*427 FILLER_14_105
*428 FILLER_14_108
*429 FILLER_14_124
*430 FILLER_14_132
*431 FILLER_14_136
*432 FILLER_14_138
*433 FILLER_14_168
*434 FILLER_14_175
*435 FILLER_14_179
*436 FILLER_14_183
*437 FILLER_14_188
*438 FILLER_14_2
*439 FILLER_14_220
*440 FILLER_14_236
*441 FILLER_14_244
*442 FILLER_14_250
*443 FILLER_14_314
*444 FILLER_14_318
*445 FILLER_14_321
*446 FILLER_14_34
*447 FILLER_14_353
*448 FILLER_14_355
*449 FILLER_14_358
*450 FILLER_14_37
*451 FILLER_14_389
*452 FILLER_14_392
*453 FILLER_14_408
*454 FILLER_14_416
*455 FILLER_15_137
*456 FILLER_15_141
*457 FILLER_15_144
*458 FILLER_15_160
*459 FILLER_15_170
*460 FILLER_15_174
*461 FILLER_15_177
*462 FILLER_15_186
*463 FILLER_15_2
*464 FILLER_15_202
*465 FILLER_15_210
*466 FILLER_15_212
*467 FILLER_15_215
*468 FILLER_15_279
*469 FILLER_15_283
*470 FILLER_15_286
*471 FILLER_15_350
*472 FILLER_15_354
*473 FILLER_15_357
*474 FILLER_15_365
*475 FILLER_15_372
*476 FILLER_15_380
*477 FILLER_15_397
*478 FILLER_15_413
*479 FILLER_15_417
*480 FILLER_15_419
*481 FILLER_15_5
*482 FILLER_15_69
*483 FILLER_15_73
*484 FILLER_16_101
*485 FILLER_16_105
*486 FILLER_16_108
*487 FILLER_16_172
*488 FILLER_16_176
*489 FILLER_16_179
*490 FILLER_16_19
*491 FILLER_16_2
*492 FILLER_16_243
*493 FILLER_16_247
*494 FILLER_16_250
*495 FILLER_16_314
*496 FILLER_16_318
*497 FILLER_16_321
*498 FILLER_16_337
*499 FILLER_16_345
*500 FILLER_16_349
*501 FILLER_16_352
*502 FILLER_16_37
*503 FILLER_16_383
*504 FILLER_16_387
*505 FILLER_16_389
*506 FILLER_16_392
*507 FILLER_16_408
*508 FILLER_16_416
*509 FILLER_17_137
*510 FILLER_17_141
*511 FILLER_17_144
*512 FILLER_17_2
*513 FILLER_17_208
*514 FILLER_17_212
*515 FILLER_17_215
*516 FILLER_17_279
*517 FILLER_17_283
*518 FILLER_17_286
*519 FILLER_17_318
*520 FILLER_17_328
*521 FILLER_17_336
*522 FILLER_17_352
*523 FILLER_17_354
*524 FILLER_17_357
*525 FILLER_17_379
*526 FILLER_17_410
*527 FILLER_17_418
*528 FILLER_17_66
*529 FILLER_17_70
*530 FILLER_17_73
*531 FILLER_18_101
*532 FILLER_18_105
*533 FILLER_18_108
*534 FILLER_18_172
*535 FILLER_18_176
*536 FILLER_18_179
*537 FILLER_18_2
*538 FILLER_18_243
*539 FILLER_18_247
*540 FILLER_18_250
*541 FILLER_18_314
*542 FILLER_18_318
*543 FILLER_18_321
*544 FILLER_18_34
*545 FILLER_18_353
*546 FILLER_18_363
*547 FILLER_18_37
*548 FILLER_18_373
*549 FILLER_18_389
*550 FILLER_18_392
*551 FILLER_18_408
*552 FILLER_18_416
*553 FILLER_19_137
*554 FILLER_19_141
*555 FILLER_19_144
*556 FILLER_19_2
*557 FILLER_19_208
*558 FILLER_19_212
*559 FILLER_19_215
*560 FILLER_19_279
*561 FILLER_19_283
*562 FILLER_19_286
*563 FILLER_19_350
*564 FILLER_19_354
*565 FILLER_19_357
*566 FILLER_19_375
*567 FILLER_19_406
*568 FILLER_19_414
*569 FILLER_19_418
*570 FILLER_19_66
*571 FILLER_19_70
*572 FILLER_19_73
*573 FILLER_1_137
*574 FILLER_1_141
*575 FILLER_1_144
*576 FILLER_1_2
*577 FILLER_1_208
*578 FILLER_1_212
*579 FILLER_1_215
*580 FILLER_1_279
*581 FILLER_1_283
*582 FILLER_1_286
*583 FILLER_1_302
*584 FILLER_1_332
*585 FILLER_1_336
*586 FILLER_1_352
*587 FILLER_1_354
*588 FILLER_1_357
*589 FILLER_1_373
*590 FILLER_1_381
*591 FILLER_1_391
*592 FILLER_1_409
*593 FILLER_1_417
*594 FILLER_1_419
*595 FILLER_1_5
*596 FILLER_1_69
*597 FILLER_1_73
*598 FILLER_20_101
*599 FILLER_20_105
*600 FILLER_20_108
*601 FILLER_20_172
*602 FILLER_20_176
*603 FILLER_20_179
*604 FILLER_20_2
*605 FILLER_20_243
*606 FILLER_20_247
*607 FILLER_20_250
*608 FILLER_20_314
*609 FILLER_20_318
*610 FILLER_20_321
*611 FILLER_20_34
*612 FILLER_20_353
*613 FILLER_20_369
*614 FILLER_20_37
*615 FILLER_20_377
*616 FILLER_20_381
*617 FILLER_20_389
*618 FILLER_20_392
*619 FILLER_20_407
*620 FILLER_20_415
*621 FILLER_20_419
*622 FILLER_21_137
*623 FILLER_21_141
*624 FILLER_21_144
*625 FILLER_21_2
*626 FILLER_21_208
*627 FILLER_21_212
*628 FILLER_21_215
*629 FILLER_21_219
*630 FILLER_21_221
*631 FILLER_21_224
*632 FILLER_21_276
*633 FILLER_21_286
*634 FILLER_21_350
*635 FILLER_21_354
*636 FILLER_21_357
*637 FILLER_21_373
*638 FILLER_21_376
*639 FILLER_21_386
*640 FILLER_21_402
*641 FILLER_21_418
*642 FILLER_21_66
*643 FILLER_21_70
*644 FILLER_21_73
*645 FILLER_22_101
*646 FILLER_22_105
*647 FILLER_22_108
*648 FILLER_22_172
*649 FILLER_22_176
*650 FILLER_22_179
*651 FILLER_22_2
*652 FILLER_22_243
*653 FILLER_22_247
*654 FILLER_22_250
*655 FILLER_22_314
*656 FILLER_22_318
*657 FILLER_22_321
*658 FILLER_22_34
*659 FILLER_22_353
*660 FILLER_22_369
*661 FILLER_22_37
*662 FILLER_22_377
*663 FILLER_22_381
*664 FILLER_22_389
*665 FILLER_22_392
*666 FILLER_22_394
*667 FILLER_22_410
*668 FILLER_22_418
*669 FILLER_23_137
*670 FILLER_23_141
*671 FILLER_23_144
*672 FILLER_23_2
*673 FILLER_23_208
*674 FILLER_23_212
*675 FILLER_23_215
*676 FILLER_23_279
*677 FILLER_23_283
*678 FILLER_23_286
*679 FILLER_23_350
*680 FILLER_23_354
*681 FILLER_23_357
*682 FILLER_23_373
*683 FILLER_23_377
*684 FILLER_23_408
*685 FILLER_23_416
*686 FILLER_23_66
*687 FILLER_23_70
*688 FILLER_23_73
*689 FILLER_24_101
*690 FILLER_24_105
*691 FILLER_24_108
*692 FILLER_24_172
*693 FILLER_24_176
*694 FILLER_24_179
*695 FILLER_24_2
*696 FILLER_24_23
*697 FILLER_24_243
*698 FILLER_24_247
*699 FILLER_24_250
*700 FILLER_24_31
*701 FILLER_24_314
*702 FILLER_24_318
*703 FILLER_24_321
*704 FILLER_24_337
*705 FILLER_24_341
*706 FILLER_24_345
*707 FILLER_24_361
*708 FILLER_24_369
*709 FILLER_24_37
*710 FILLER_24_373
*711 FILLER_24_389
*712 FILLER_24_392
*713 FILLER_24_411
*714 FILLER_24_419
*715 FILLER_24_7
*716 FILLER_25_137
*717 FILLER_25_141
*718 FILLER_25_144
*719 FILLER_25_2
*720 FILLER_25_208
*721 FILLER_25_212
*722 FILLER_25_215
*723 FILLER_25_279
*724 FILLER_25_283
*725 FILLER_25_286
*726 FILLER_25_288
*727 FILLER_25_291
*728 FILLER_25_34
*729 FILLER_25_343
*730 FILLER_25_351
*731 FILLER_25_357
*732 FILLER_25_36
*733 FILLER_25_367
*734 FILLER_25_383
*735 FILLER_25_414
*736 FILLER_25_418
*737 FILLER_25_66
*738 FILLER_25_70
*739 FILLER_25_73
*740 FILLER_26_101
*741 FILLER_26_105
*742 FILLER_26_108
*743 FILLER_26_172
*744 FILLER_26_176
*745 FILLER_26_179
*746 FILLER_26_2
*747 FILLER_26_243
*748 FILLER_26_247
*749 FILLER_26_250
*750 FILLER_26_314
*751 FILLER_26_318
*752 FILLER_26_321
*753 FILLER_26_34
*754 FILLER_26_353
*755 FILLER_26_369
*756 FILLER_26_37
*757 FILLER_26_373
*758 FILLER_26_389
*759 FILLER_26_392
*760 FILLER_26_411
*761 FILLER_26_419
*762 FILLER_27_137
*763 FILLER_27_141
*764 FILLER_27_144
*765 FILLER_27_2
*766 FILLER_27_208
*767 FILLER_27_212
*768 FILLER_27_215
*769 FILLER_27_279
*770 FILLER_27_283
*771 FILLER_27_286
*772 FILLER_27_350
*773 FILLER_27_354
*774 FILLER_27_357
*775 FILLER_27_373
*776 FILLER_27_377
*777 FILLER_27_379
*778 FILLER_27_382
*779 FILLER_27_413
*780 FILLER_27_417
*781 FILLER_27_419
*782 FILLER_27_66
*783 FILLER_27_70
*784 FILLER_27_73
*785 FILLER_28_101
*786 FILLER_28_105
*787 FILLER_28_108
*788 FILLER_28_172
*789 FILLER_28_176
*790 FILLER_28_179
*791 FILLER_28_2
*792 FILLER_28_243
*793 FILLER_28_247
*794 FILLER_28_250
*795 FILLER_28_314
*796 FILLER_28_318
*797 FILLER_28_321
*798 FILLER_28_34
*799 FILLER_28_353
*800 FILLER_28_355
*801 FILLER_28_358
*802 FILLER_28_366
*803 FILLER_28_37
*804 FILLER_28_373
*805 FILLER_28_381
*806 FILLER_28_389
*807 FILLER_28_392
*808 FILLER_28_407
*809 FILLER_28_415
*810 FILLER_28_419
*811 FILLER_29_137
*812 FILLER_29_141
*813 FILLER_29_144
*814 FILLER_29_2
*815 FILLER_29_208
*816 FILLER_29_212
*817 FILLER_29_215
*818 FILLER_29_279
*819 FILLER_29_283
*820 FILLER_29_286
*821 FILLER_29_318
*822 FILLER_29_326
*823 FILLER_29_336
*824 FILLER_29_353
*825 FILLER_29_357
*826 FILLER_29_387
*827 FILLER_29_403
*828 FILLER_29_419
*829 FILLER_29_66
*830 FILLER_29_70
*831 FILLER_29_73
*832 FILLER_2_103
*833 FILLER_2_105
*834 FILLER_2_108
*835 FILLER_2_172
*836 FILLER_2_176
*837 FILLER_2_179
*838 FILLER_2_2
*839 FILLER_2_243
*840 FILLER_2_247
*841 FILLER_2_250
*842 FILLER_2_282
*843 FILLER_2_286
*844 FILLER_2_288
*845 FILLER_2_318
*846 FILLER_2_321
*847 FILLER_2_328
*848 FILLER_2_332
*849 FILLER_2_34
*850 FILLER_2_364
*851 FILLER_2_37
*852 FILLER_2_380
*853 FILLER_2_382
*854 FILLER_2_385
*855 FILLER_2_389
*856 FILLER_2_392
*857 FILLER_2_407
*858 FILLER_2_415
*859 FILLER_2_419
*860 FILLER_2_67
*861 FILLER_2_71
*862 FILLER_30_101
*863 FILLER_30_105
*864 FILLER_30_108
*865 FILLER_30_172
*866 FILLER_30_176
*867 FILLER_30_179
*868 FILLER_30_2
*869 FILLER_30_243
*870 FILLER_30_247
*871 FILLER_30_250
*872 FILLER_30_254
*873 FILLER_30_257
*874 FILLER_30_309
*875 FILLER_30_317
*876 FILLER_30_321
*877 FILLER_30_34
*878 FILLER_30_351
*879 FILLER_30_368
*880 FILLER_30_37
*881 FILLER_30_372
*882 FILLER_30_376
*883 FILLER_30_384
*884 FILLER_30_388
*885 FILLER_30_392
*886 FILLER_30_408
*887 FILLER_30_416
*888 FILLER_31_137
*889 FILLER_31_141
*890 FILLER_31_144
*891 FILLER_31_2
*892 FILLER_31_208
*893 FILLER_31_212
*894 FILLER_31_215
*895 FILLER_31_279
*896 FILLER_31_283
*897 FILLER_31_286
*898 FILLER_31_302
*899 FILLER_31_310
*900 FILLER_31_314
*901 FILLER_31_344
*902 FILLER_31_348
*903 FILLER_31_354
*904 FILLER_31_357
*905 FILLER_31_366
*906 FILLER_31_368
*907 FILLER_31_398
*908 FILLER_31_406
*909 FILLER_31_414
*910 FILLER_31_418
*911 FILLER_31_5
*912 FILLER_31_69
*913 FILLER_31_73
*914 FILLER_32_101
*915 FILLER_32_105
*916 FILLER_32_108
*917 FILLER_32_172
*918 FILLER_32_176
*919 FILLER_32_179
*920 FILLER_32_19
*921 FILLER_32_2
*922 FILLER_32_243
*923 FILLER_32_247
*924 FILLER_32_250
*925 FILLER_32_314
*926 FILLER_32_318
*927 FILLER_32_321
*928 FILLER_32_325
*929 FILLER_32_333
*930 FILLER_32_365
*931 FILLER_32_37
*932 FILLER_32_373
*933 FILLER_32_389
*934 FILLER_32_392
*935 FILLER_32_408
*936 FILLER_32_416
*937 FILLER_33_137
*938 FILLER_33_141
*939 FILLER_33_144
*940 FILLER_33_2
*941 FILLER_33_208
*942 FILLER_33_212
*943 FILLER_33_215
*944 FILLER_33_279
*945 FILLER_33_283
*946 FILLER_33_286
*947 FILLER_33_350
*948 FILLER_33_354
*949 FILLER_33_357
*950 FILLER_33_373
*951 FILLER_33_376
*952 FILLER_33_407
*953 FILLER_33_415
*954 FILLER_33_419
*955 FILLER_33_66
*956 FILLER_33_70
*957 FILLER_33_73
*958 FILLER_34_101
*959 FILLER_34_105
*960 FILLER_34_108
*961 FILLER_34_172
*962 FILLER_34_176
*963 FILLER_34_179
*964 FILLER_34_2
*965 FILLER_34_243
*966 FILLER_34_247
*967 FILLER_34_250
*968 FILLER_34_314
*969 FILLER_34_318
*970 FILLER_34_321
*971 FILLER_34_34
*972 FILLER_34_353
*973 FILLER_34_369
*974 FILLER_34_37
*975 FILLER_34_373
*976 FILLER_34_389
*977 FILLER_34_392
*978 FILLER_34_394
*979 FILLER_34_410
*980 FILLER_34_414
*981 FILLER_34_418
*982 FILLER_35_137
*983 FILLER_35_141
*984 FILLER_35_144
*985 FILLER_35_2
*986 FILLER_35_208
*987 FILLER_35_212
*988 FILLER_35_215
*989 FILLER_35_279
*990 FILLER_35_283
*991 FILLER_35_286
*992 FILLER_35_350
*993 FILLER_35_354
*994 FILLER_35_357
*995 FILLER_35_373
*996 FILLER_35_377
*997 FILLER_35_408
*998 FILLER_35_416
*999 FILLER_35_66
*1000 FILLER_35_70
*1001 FILLER_35_73
*1002 FILLER_36_101
*1003 FILLER_36_105
*1004 FILLER_36_108
*1005 FILLER_36_172
*1006 FILLER_36_176
*1007 FILLER_36_179
*1008 FILLER_36_2
*1009 FILLER_36_243
*1010 FILLER_36_247
*1011 FILLER_36_250
*1012 FILLER_36_282
*1013 FILLER_36_298
*1014 FILLER_36_306
*1015 FILLER_36_314
*1016 FILLER_36_318
*1017 FILLER_36_321
*1018 FILLER_36_328
*1019 FILLER_36_34
*1020 FILLER_36_346
*1021 FILLER_36_362
*1022 FILLER_36_366
*1023 FILLER_36_369
*1024 FILLER_36_37
*1025 FILLER_36_379
*1026 FILLER_36_389
*1027 FILLER_36_392
*1028 FILLER_36_407
*1029 FILLER_36_415
*1030 FILLER_36_419
*1031 FILLER_37_137
*1032 FILLER_37_141
*1033 FILLER_37_144
*1034 FILLER_37_2
*1035 FILLER_37_208
*1036 FILLER_37_212
*1037 FILLER_37_215
*1038 FILLER_37_247
*1039 FILLER_37_263
*1040 FILLER_37_271
*1041 FILLER_37_281
*1042 FILLER_37_283
*1043 FILLER_37_286
*1044 FILLER_37_294
*1045 FILLER_37_298
*1046 FILLER_37_301
*1047 FILLER_37_332
*1048 FILLER_37_344
*1049 FILLER_37_354
*1050 FILLER_37_357
*1051 FILLER_37_360
*1052 FILLER_37_364
*1053 FILLER_37_367
*1054 FILLER_37_383
*1055 FILLER_37_414
*1056 FILLER_37_418
*1057 FILLER_37_66
*1058 FILLER_37_70
*1059 FILLER_37_73
*1060 FILLER_38_101
*1061 FILLER_38_105
*1062 FILLER_38_108
*1063 FILLER_38_172
*1064 FILLER_38_176
*1065 FILLER_38_179
*1066 FILLER_38_2
*1067 FILLER_38_243
*1068 FILLER_38_247
*1069 FILLER_38_250
*1070 FILLER_38_295
*1071 FILLER_38_299
*1072 FILLER_38_318
*1073 FILLER_38_321
*1074 FILLER_38_34
*1075 FILLER_38_351
*1076 FILLER_38_367
*1077 FILLER_38_37
*1078 FILLER_38_389
*1079 FILLER_38_392
*1080 FILLER_38_411
*1081 FILLER_38_415
*1082 FILLER_38_419
*1083 FILLER_39_137
*1084 FILLER_39_141
*1085 FILLER_39_144
*1086 FILLER_39_2
*1087 FILLER_39_208
*1088 FILLER_39_212
*1089 FILLER_39_215
*1090 FILLER_39_247
*1091 FILLER_39_255
*1092 FILLER_39_265
*1093 FILLER_39_273
*1094 FILLER_39_277
*1095 FILLER_39_279
*1096 FILLER_39_282
*1097 FILLER_39_286
*1098 FILLER_39_319
*1099 FILLER_39_336
*1100 FILLER_39_340
*1101 FILLER_39_344
*1102 FILLER_39_354
*1103 FILLER_39_357
*1104 FILLER_39_387
*1105 FILLER_39_418
*1106 FILLER_39_66
*1107 FILLER_39_70
*1108 FILLER_39_73
*1109 FILLER_3_137
*1110 FILLER_3_141
*1111 FILLER_3_144
*1112 FILLER_3_2
*1113 FILLER_3_208
*1114 FILLER_3_212
*1115 FILLER_3_215
*1116 FILLER_3_279
*1117 FILLER_3_283
*1118 FILLER_3_286
*1119 FILLER_3_294
*1120 FILLER_3_298
*1121 FILLER_3_306
*1122 FILLER_3_329
*1123 FILLER_3_333
*1124 FILLER_3_337
*1125 FILLER_3_353
*1126 FILLER_3_357
*1127 FILLER_3_373
*1128 FILLER_3_381
*1129 FILLER_3_384
*1130 FILLER_3_415
*1131 FILLER_3_419
*1132 FILLER_3_66
*1133 FILLER_3_70
*1134 FILLER_3_73
*1135 FILLER_40_101
*1136 FILLER_40_105
*1137 FILLER_40_108
*1138 FILLER_40_172
*1139 FILLER_40_176
*1140 FILLER_40_179
*1141 FILLER_40_2
*1142 FILLER_40_23
*1143 FILLER_40_243
*1144 FILLER_40_247
*1145 FILLER_40_250
*1146 FILLER_40_280
*1147 FILLER_40_297
*1148 FILLER_40_301
*1149 FILLER_40_31
*1150 FILLER_40_311
*1151 FILLER_40_315
*1152 FILLER_40_318
*1153 FILLER_40_321
*1154 FILLER_40_328
*1155 FILLER_40_332
*1156 FILLER_40_336
*1157 FILLER_40_367
*1158 FILLER_40_37
*1159 FILLER_40_375
*1160 FILLER_40_381
*1161 FILLER_40_389
*1162 FILLER_40_392
*1163 FILLER_40_411
*1164 FILLER_40_415
*1165 FILLER_40_419
*1166 FILLER_40_7
*1167 FILLER_41_137
*1168 FILLER_41_141
*1169 FILLER_41_144
*1170 FILLER_41_2
*1171 FILLER_41_208
*1172 FILLER_41_212
*1173 FILLER_41_215
*1174 FILLER_41_279
*1175 FILLER_41_282
*1176 FILLER_41_286
*1177 FILLER_41_302
*1178 FILLER_41_306
*1179 FILLER_41_336
*1180 FILLER_41_340
*1181 FILLER_41_344
*1182 FILLER_41_351
*1183 FILLER_41_357
*1184 FILLER_41_364
*1185 FILLER_41_368
*1186 FILLER_41_376
*1187 FILLER_41_380
*1188 FILLER_41_411
*1189 FILLER_41_419
*1190 FILLER_41_66
*1191 FILLER_41_70
*1192 FILLER_41_73
*1193 FILLER_42_101
*1194 FILLER_42_105
*1195 FILLER_42_108
*1196 FILLER_42_172
*1197 FILLER_42_176
*1198 FILLER_42_179
*1199 FILLER_42_2
*1200 FILLER_42_243
*1201 FILLER_42_247
*1202 FILLER_42_250
*1203 FILLER_42_282
*1204 FILLER_42_298
*1205 FILLER_42_304
*1206 FILLER_42_308
*1207 FILLER_42_312
*1208 FILLER_42_318
*1209 FILLER_42_321
*1210 FILLER_42_34
*1211 FILLER_42_340
*1212 FILLER_42_357
*1213 FILLER_42_37
*1214 FILLER_42_374
*1215 FILLER_42_378
*1216 FILLER_42_382
*1217 FILLER_42_389
*1218 FILLER_42_392
*1219 FILLER_42_411
*1220 FILLER_42_415
*1221 FILLER_42_419
*1222 FILLER_43_137
*1223 FILLER_43_141
*1224 FILLER_43_144
*1225 FILLER_43_2
*1226 FILLER_43_208
*1227 FILLER_43_212
*1228 FILLER_43_215
*1229 FILLER_43_279
*1230 FILLER_43_283
*1231 FILLER_43_286
*1232 FILLER_43_318
*1233 FILLER_43_334
*1234 FILLER_43_338
*1235 FILLER_43_342
*1236 FILLER_43_346
*1237 FILLER_43_354
*1238 FILLER_43_357
*1239 FILLER_43_373
*1240 FILLER_43_377
*1241 FILLER_43_385
*1242 FILLER_43_387
*1243 FILLER_43_402
*1244 FILLER_43_418
*1245 FILLER_43_66
*1246 FILLER_43_70
*1247 FILLER_43_73
*1248 FILLER_44_101
*1249 FILLER_44_105
*1250 FILLER_44_108
*1251 FILLER_44_172
*1252 FILLER_44_176
*1253 FILLER_44_179
*1254 FILLER_44_2
*1255 FILLER_44_243
*1256 FILLER_44_247
*1257 FILLER_44_250
*1258 FILLER_44_314
*1259 FILLER_44_318
*1260 FILLER_44_321
*1261 FILLER_44_34
*1262 FILLER_44_37
*1263 FILLER_44_385
*1264 FILLER_44_389
*1265 FILLER_44_392
*1266 FILLER_44_407
*1267 FILLER_44_411
*1268 FILLER_44_419
*1269 FILLER_45_137
*1270 FILLER_45_141
*1271 FILLER_45_144
*1272 FILLER_45_2
*1273 FILLER_45_208
*1274 FILLER_45_212
*1275 FILLER_45_215
*1276 FILLER_45_279
*1277 FILLER_45_283
*1278 FILLER_45_286
*1279 FILLER_45_350
*1280 FILLER_45_354
*1281 FILLER_45_357
*1282 FILLER_45_373
*1283 FILLER_45_381
*1284 FILLER_45_385
*1285 FILLER_45_387
*1286 FILLER_45_402
*1287 FILLER_45_418
*1288 FILLER_45_66
*1289 FILLER_45_70
*1290 FILLER_45_73
*1291 FILLER_46_101
*1292 FILLER_46_105
*1293 FILLER_46_108
*1294 FILLER_46_172
*1295 FILLER_46_176
*1296 FILLER_46_179
*1297 FILLER_46_2
*1298 FILLER_46_243
*1299 FILLER_46_247
*1300 FILLER_46_250
*1301 FILLER_46_314
*1302 FILLER_46_318
*1303 FILLER_46_321
*1304 FILLER_46_34
*1305 FILLER_46_37
*1306 FILLER_46_385
*1307 FILLER_46_389
*1308 FILLER_46_392
*1309 FILLER_46_407
*1310 FILLER_46_415
*1311 FILLER_46_419
*1312 FILLER_47_10
*1313 FILLER_47_137
*1314 FILLER_47_14
*1315 FILLER_47_141
*1316 FILLER_47_144
*1317 FILLER_47_2
*1318 FILLER_47_208
*1319 FILLER_47_212
*1320 FILLER_47_215
*1321 FILLER_47_22
*1322 FILLER_47_26
*1323 FILLER_47_279
*1324 FILLER_47_283
*1325 FILLER_47_286
*1326 FILLER_47_350
*1327 FILLER_47_354
*1328 FILLER_47_357
*1329 FILLER_47_389
*1330 FILLER_47_405
*1331 FILLER_47_413
*1332 FILLER_47_417
*1333 FILLER_47_419
*1334 FILLER_47_58
*1335 FILLER_47_66
*1336 FILLER_47_70
*1337 FILLER_47_73
*1338 FILLER_48_101
*1339 FILLER_48_105
*1340 FILLER_48_108
*1341 FILLER_48_17
*1342 FILLER_48_172
*1343 FILLER_48_176
*1344 FILLER_48_179
*1345 FILLER_48_2
*1346 FILLER_48_243
*1347 FILLER_48_247
*1348 FILLER_48_250
*1349 FILLER_48_314
*1350 FILLER_48_318
*1351 FILLER_48_321
*1352 FILLER_48_33
*1353 FILLER_48_37
*1354 FILLER_48_385
*1355 FILLER_48_389
*1356 FILLER_48_392
*1357 FILLER_48_407
*1358 FILLER_48_415
*1359 FILLER_48_419
*1360 FILLER_49_137
*1361 FILLER_49_141
*1362 FILLER_49_144
*1363 FILLER_49_2
*1364 FILLER_49_208
*1365 FILLER_49_212
*1366 FILLER_49_215
*1367 FILLER_49_279
*1368 FILLER_49_283
*1369 FILLER_49_286
*1370 FILLER_49_350
*1371 FILLER_49_354
*1372 FILLER_49_357
*1373 FILLER_49_389
*1374 FILLER_49_405
*1375 FILLER_49_413
*1376 FILLER_49_417
*1377 FILLER_49_419
*1378 FILLER_49_66
*1379 FILLER_49_70
*1380 FILLER_49_73
*1381 FILLER_4_101
*1382 FILLER_4_105
*1383 FILLER_4_108
*1384 FILLER_4_172
*1385 FILLER_4_176
*1386 FILLER_4_179
*1387 FILLER_4_2
*1388 FILLER_4_243
*1389 FILLER_4_247
*1390 FILLER_4_250
*1391 FILLER_4_282
*1392 FILLER_4_298
*1393 FILLER_4_301
*1394 FILLER_4_318
*1395 FILLER_4_321
*1396 FILLER_4_324
*1397 FILLER_4_328
*1398 FILLER_4_34
*1399 FILLER_4_345
*1400 FILLER_4_349
*1401 FILLER_4_365
*1402 FILLER_4_37
*1403 FILLER_4_373
*1404 FILLER_4_389
*1405 FILLER_4_392
*1406 FILLER_4_411
*1407 FILLER_4_419
*1408 FILLER_50_101
*1409 FILLER_50_105
*1410 FILLER_50_108
*1411 FILLER_50_172
*1412 FILLER_50_176
*1413 FILLER_50_179
*1414 FILLER_50_2
*1415 FILLER_50_243
*1416 FILLER_50_247
*1417 FILLER_50_250
*1418 FILLER_50_314
*1419 FILLER_50_318
*1420 FILLER_50_321
*1421 FILLER_50_34
*1422 FILLER_50_37
*1423 FILLER_50_385
*1424 FILLER_50_389
*1425 FILLER_50_392
*1426 FILLER_50_407
*1427 FILLER_50_415
*1428 FILLER_50_419
*1429 FILLER_51_137
*1430 FILLER_51_141
*1431 FILLER_51_144
*1432 FILLER_51_2
*1433 FILLER_51_208
*1434 FILLER_51_212
*1435 FILLER_51_215
*1436 FILLER_51_279
*1437 FILLER_51_283
*1438 FILLER_51_286
*1439 FILLER_51_350
*1440 FILLER_51_354
*1441 FILLER_51_357
*1442 FILLER_51_389
*1443 FILLER_51_405
*1444 FILLER_51_413
*1445 FILLER_51_417
*1446 FILLER_51_419
*1447 FILLER_51_66
*1448 FILLER_51_70
*1449 FILLER_51_73
*1450 FILLER_52_101
*1451 FILLER_52_105
*1452 FILLER_52_108
*1453 FILLER_52_172
*1454 FILLER_52_176
*1455 FILLER_52_179
*1456 FILLER_52_2
*1457 FILLER_52_243
*1458 FILLER_52_247
*1459 FILLER_52_250
*1460 FILLER_52_314
*1461 FILLER_52_318
*1462 FILLER_52_321
*1463 FILLER_52_34
*1464 FILLER_52_37
*1465 FILLER_52_385
*1466 FILLER_52_389
*1467 FILLER_52_392
*1468 FILLER_52_407
*1469 FILLER_52_415
*1470 FILLER_52_419
*1471 FILLER_53_137
*1472 FILLER_53_141
*1473 FILLER_53_144
*1474 FILLER_53_2
*1475 FILLER_53_208
*1476 FILLER_53_212
*1477 FILLER_53_215
*1478 FILLER_53_279
*1479 FILLER_53_283
*1480 FILLER_53_286
*1481 FILLER_53_350
*1482 FILLER_53_354
*1483 FILLER_53_357
*1484 FILLER_53_373
*1485 FILLER_53_381
*1486 FILLER_53_383
*1487 FILLER_53_386
*1488 FILLER_53_402
*1489 FILLER_53_406
*1490 FILLER_53_414
*1491 FILLER_53_418
*1492 FILLER_53_66
*1493 FILLER_53_70
*1494 FILLER_53_73
*1495 FILLER_54_104
*1496 FILLER_54_107
*1497 FILLER_54_139
*1498 FILLER_54_142
*1499 FILLER_54_174
*1500 FILLER_54_177
*1501 FILLER_54_2
*1502 FILLER_54_209
*1503 FILLER_54_212
*1504 FILLER_54_23
*1505 FILLER_54_244
*1506 FILLER_54_247
*1507 FILLER_54_279
*1508 FILLER_54_282
*1509 FILLER_54_31
*1510 FILLER_54_314
*1511 FILLER_54_317
*1512 FILLER_54_349
*1513 FILLER_54_352
*1514 FILLER_54_368
*1515 FILLER_54_37
*1516 FILLER_54_376
*1517 FILLER_54_380
*1518 FILLER_54_384
*1519 FILLER_54_387
*1520 FILLER_54_402
*1521 FILLER_54_418
*1522 FILLER_54_69
*1523 FILLER_54_7
*1524 FILLER_54_72
*1525 FILLER_5_137
*1526 FILLER_5_141
*1527 FILLER_5_144
*1528 FILLER_5_176
*1529 FILLER_5_180
*1530 FILLER_5_184
*1531 FILLER_5_2
*1532 FILLER_5_200
*1533 FILLER_5_208
*1534 FILLER_5_212
*1535 FILLER_5_215
*1536 FILLER_5_218
*1537 FILLER_5_282
*1538 FILLER_5_286
*1539 FILLER_5_318
*1540 FILLER_5_348
*1541 FILLER_5_352
*1542 FILLER_5_354
*1543 FILLER_5_357
*1544 FILLER_5_373
*1545 FILLER_5_377
*1546 FILLER_5_381
*1547 FILLER_5_412
*1548 FILLER_5_66
*1549 FILLER_5_70
*1550 FILLER_5_73
*1551 FILLER_6_101
*1552 FILLER_6_105
*1553 FILLER_6_108
*1554 FILLER_6_138
*1555 FILLER_6_142
*1556 FILLER_6_174
*1557 FILLER_6_176
*1558 FILLER_6_179
*1559 FILLER_6_181
*1560 FILLER_6_184
*1561 FILLER_6_2
*1562 FILLER_6_215
*1563 FILLER_6_225
*1564 FILLER_6_241
*1565 FILLER_6_245
*1566 FILLER_6_247
*1567 FILLER_6_250
*1568 FILLER_6_314
*1569 FILLER_6_318
*1570 FILLER_6_321
*1571 FILLER_6_325
*1572 FILLER_6_332
*1573 FILLER_6_336
*1574 FILLER_6_34
*1575 FILLER_6_353
*1576 FILLER_6_357
*1577 FILLER_6_365
*1578 FILLER_6_369
*1579 FILLER_6_37
*1580 FILLER_6_373
*1581 FILLER_6_389
*1582 FILLER_6_392
*1583 FILLER_6_411
*1584 FILLER_6_419
*1585 FILLER_7_137
*1586 FILLER_7_141
*1587 FILLER_7_144
*1588 FILLER_7_2
*1589 FILLER_7_208
*1590 FILLER_7_212
*1591 FILLER_7_215
*1592 FILLER_7_279
*1593 FILLER_7_283
*1594 FILLER_7_286
*1595 FILLER_7_318
*1596 FILLER_7_326
*1597 FILLER_7_330
*1598 FILLER_7_339